data_epoxide
_audit_creation_date               2023-10-19
_audit_creation_method
;
Olex2 1.5
(compiled 2023.03.06 svn.rbb2c1857 for OlexSys, GUI svn.r6748)
;
_audit_contact_author_address      ?
_audit_contact_author_email        ?
_audit_contact_author_name         ''
_audit_contact_author_phone        ?
_publ_contact_author_id_orcid      ?
_publ_section_references
;
Bourhis, L.J., Dolomanov, O.V., Gildea, R.J., Howard, J.A.K., Puschmann, H.
 (2015). Acta Cryst. A71, 59-75.

Dolomanov, O.V., Bourhis, L.J., Gildea, R.J, Howard, J.A.K. & Puschmann, H.
 (2009), J. Appl. Cryst. 42, 339-341.
;
_chemical_formula_moiety           'C2 H4 O'
_chemical_formula_sum              'C2 H4 O'
_chemical_formula_weight           44.053
loop_
  _atom_type_symbol
  _atom_type_scat_dispersion_real
  _atom_type_scat_dispersion_imag
  _atom_type_scat_Cromer_Mann_a1
  _atom_type_scat_Cromer_Mann_a2
  _atom_type_scat_Cromer_Mann_a3
  _atom_type_scat_Cromer_Mann_a4
  _atom_type_scat_Cromer_Mann_b1
  _atom_type_scat_Cromer_Mann_b2
  _atom_type_scat_Cromer_Mann_b3
  _atom_type_scat_Cromer_Mann_b4
  _atom_type_scat_Cromer_Mann_c
  _atom_type_scat_source
  _atom_type_scat_dispersion_source
 C 0.00347 0.00161 2.31000 1.02000 1.58860 0.86500 20.84390 10.20750 0.56870
 51.65120 0.21560 'International Tables Volume C Table 6.1.1.4 (pp. 500-502)'
 'Henke, Gullikson and Davis, At. Data and Nucl. Data Tables, 1993, 54, 2'
 H 0.00000 0.00000 0.49300 0.32291 0.14019 0.04081 10.51090 26.12570 3.14236
 57.79970 0.00304 'International Tables Volume C Table 6.1.1.4 (pp. 500-502)'
 'Henke, Gullikson and Davis, At. Data and Nucl. Data Tables, 1993, 54, 2'
 O 0.01158 0.00611 3.04850 2.28680 1.54630 0.86700 13.27710 5.70110 0.32390
 32.90890 0.25080 'International Tables Volume C Table 6.1.1.4 (pp. 500-502)'
 'Henke, Gullikson and Davis, At. Data and Nucl. Data Tables, 1993, 54, 2'

_space_group_crystal_system        'monoclinic'
_space_group_IT_number             14
_space_group_name_H-M_alt          'P 1 21/n 1'
_space_group_name_Hall             '-P 2yn'
loop_
  _space_group_symop_id
  _space_group_symop_operation_xyz
 1 x,y,z
 2 -x+1/2,y+1/2,-z+1/2
 3 -x,-y,-z
 4 x-1/2,-y-1/2,z-1/2

_symmetry_Int_Tables_number        14
_cell_length_a                     4.633(5)
_cell_length_b                     8.400(1)
_cell_length_c                     6.577(3)
_cell_angle_alpha                  90
_cell_angle_beta                   100.37(6)
_cell_angle_gamma                  90
_cell_volume                       251.8(3)
_cell_formula_units_Z              4
_cell_measurement_temperature      293(2)
_exptl_absorpt_coefficient_mu      0.092
_exptl_crystal_density_diffrn      1.162
_exptl_crystal_F_000               96.074
_diffrn_reflns_av_R_equivalents    0.0000
_diffrn_reflns_av_unetI/netI       0.0400
_diffrn_reflns_Laue_measured_fraction_full  1.0000
_diffrn_reflns_Laue_measured_fraction_max  1.0000
_diffrn_reflns_limit_h_max         6
_diffrn_reflns_limit_h_min         -9
_diffrn_reflns_limit_k_max         16
_diffrn_reflns_limit_k_min         0
_diffrn_reflns_limit_l_max         13
_diffrn_reflns_limit_l_min         -6
_diffrn_reflns_number              2081
_diffrn_reflns_point_group_measured_fraction_full  1.0000
_diffrn_reflns_point_group_measured_fraction_max  1.0000
_diffrn_reflns_theta_full          25.2398
_diffrn_reflns_theta_max           45.00
_diffrn_reflns_theta_min           3.98
_diffrn_measured_fraction_theta_full  1.0000
_diffrn_measured_fraction_theta_max  1.0000
_diffrn_radiation_type             'Mo K\a'
_diffrn_radiation_wavelength       0.71068
_reflns_Friedel_coverage           0.0
_reflns_limit_h_max                6
_reflns_limit_h_min                -9
_reflns_limit_k_max                16
_reflns_limit_k_min                0
_reflns_limit_l_max                13
_reflns_limit_l_min                -6
_reflns_number_gt                  1306
_reflns_number_total               2081
_reflns_threshold_expression       I>=2u(I)
_computing_molecular_graphics      'Olex2 1.5 (Dolomanov et al., 2009)'
_computing_publication_material    'Olex2 1.5 (Dolomanov et al., 2009)'
_computing_structure_refinement    'olex2.refine 1.5 (Bourhis et al., 2015)'
_refine_diff_density_max           1.0679
_refine_diff_density_min           -1.1675
_refine_diff_density_rms           0.1006
_refine_ls_d_res_high              0.5026
_refine_ls_d_res_low               5.1256
_refine_ls_goodness_of_fit_ref     1.0353
_refine_ls_hydrogen_treatment      constr
_refine_ls_matrix_type             full
_refine_ls_number_constraints      6
_refine_ls_number_parameters       28
_refine_ls_number_reflns           2081
_refine_ls_number_restraints       0
_refine_ls_R_factor_all            0.1249
_refine_ls_R_factor_gt             0.0945
_refine_ls_restrained_S_all        1.0353
_refine_ls_shift/su_max            -16.1162
_refine_ls_shift/su_mean           4.6416
_refine_ls_structure_factor_coef   Fsqd
_refine_ls_weighting_details      
 'w=1/[\s^2^(Fo^2^)+(0.1624P)^2^+0.0875P] where P=(Fo^2^+2Fc^2^)/3'
_refine_ls_weighting_scheme        calc
_refine_ls_wR_factor_gt            0.2919
_refine_ls_wR_factor_ref           0.3130
_olex2_refinement_description
;
1. Fixed Uiso
 At 1.2 times of:
  All C(H,H) groups
2.a Secondary CH2 refined with riding coordinates:
 C2(H2a,H2b), C3(H3a,H3b)
;
loop_
  _atom_site_label
  _atom_site_type_symbol
  _atom_site_fract_x
  _atom_site_fract_y
  _atom_site_fract_z
  _atom_site_U_iso_or_equiv
  _atom_site_adp_type
  _atom_site_occupancy
  _atom_site_refinement_flags_posn
 O1 O 0.1170(2) 0.83094(11) 0.12415(14) 0.0290(2) Uani 1.000000 .
 C2 C 0.1483(3) 0.93849(15) 0.29574(18) 0.0280(2) Uani 1.000000 .
 H2a H 0.2571(3) 0.90192(15) 0.42738(18) 0.0336(3) Uiso 1.000000 R
 H2b H 0.1696(3) 1.05092(15) 0.26817(18) 0.0336(3) Uiso 1.000000 R
 C3 C -0.1348(3) 0.86437(17) 0.2185(2) 0.0318(3) Uani 1.000000 .
 H3a H -0.2890(3) 0.93061(17) 0.1425(2) 0.0381(3) Uiso 1.000000 R
 H3b H -0.2015(3) 0.78153(17) 0.3018(2) 0.0381(3) Uiso 1.000000 R

loop_
  _atom_site_aniso_label
  _atom_site_aniso_U_11
  _atom_site_aniso_U_22
  _atom_site_aniso_U_33
  _atom_site_aniso_U_12
  _atom_site_aniso_U_13
  _atom_site_aniso_U_23
 O1 0.0290(4) 0.0290(4) 0.0290(4) -0.0000(3) 0.0052(3) -0.0000(3)
 C2 0.0280(4) 0.0280(5) 0.0280(5) -0.0000(3) 0.0050(3) -0.0000(3)
 C3 0.0318(5) 0.0318(5) 0.0318(5) -0.0000(4) 0.0057(4) -0.0000(4)

loop_
  _geom_bond_atom_site_label_1
  _geom_bond_atom_site_label_2
  _geom_bond_distance
  _geom_bond_site_symmetry_2
  _geom_bond_publ_flag
 O1 C2 1.4324(16) . ?
 O1 C3 1.444(2) . ?
 C2 H2a 0.9700 . ?
 C2 H2b 0.9700 . ?
 C2 C3 1.458(2) . ?
 C3 H3a 0.9700 . ?
 C3 H3b 0.9700 . ?

loop_
  _geom_angle_atom_site_label_1
  _geom_angle_atom_site_label_2
  _geom_angle_atom_site_label_3
  _geom_angle
  _geom_angle_site_symmetry_1
  _geom_angle_site_symmetry_3
  _geom_angle_publ_flag
 C3 O1 C2 60.92(8) . . ?
 H2a C2 O1 117.78(6) . . ?
 H2b C2 O1 117.78(6) . . ?
 H2b C2 H2a 114.9 . . ?
 C3 C2 O1 59.94(8) . . ?
 C3 C2 H2a 117.78(7) . . ?
 C3 C2 H2b 117.78(8) . . ?
 C2 C3 O1 59.14(8) . . ?
 H3a C3 O1 117.86(7) . . ?
 H3a C3 C2 117.86(8) . . ?
 H3b C3 O1 117.86(7) . . ?
 H3b C3 C2 117.86(7) . . ?
 H3b C3 H3a 115.0 . . ?

loop_
  _diffrn_refln_index_h
  _diffrn_refln_index_k
  _diffrn_refln_index_l
  _diffrn_refln_intensity_net
  _diffrn_refln_intensity_u
 -9 0 1 0.15 0.23
 -9 0 3 0.03 0.17
 -9 0 5 0.25 0.2
 -9 1 0 0.08 0.19
 -9 1 1 0.07 0.21
 -9 1 2 0.03 0.14
 -9 1 3 0.19 0.16
 -9 1 4 0.2 0.19
 -9 2 0 0.09 0.23
 -9 2 1 0.04 0.15
 -9 2 2 0.13 0.2
 -9 2 3 0.17 0.2
 -9 2 4 0.09 0.2
 -9 3 1 0.07 0.22
 -9 3 2 0.01 0.07
 -9 3 3 0.06 0.2
 -8 0 -4 0.12 0.25
 -8 0 -2 0.07 0.26
 -8 0 0 1.97 0.18
 -8 0 2 3.41 0.2
 -8 0 4 0.43 0.17
 -8 0 6 0.64 0.18
 -8 0 8 1.3 0.2
 -8 1 -4 0.17 0.2
 -8 1 -3 0.13 0.2
 -8 1 -2 0.16 0.18
 -8 1 -1 0.13 0.19
 -8 1 0 0.02 0.11
 -8 1 1 0.2 0.14
 -8 1 2 0.57 0.18
 -8 1 3 0.47 0.35
 -8 1 4 0.44 0.21
 -8 1 5 0.14 0.2
 -8 1 6 0.14 0.17
 -8 1 7 0.13 0.2
 -8 1 8 0.05 0.19
 -8 2 -4 0.2 0.2
 -8 2 -3 0.18 0.16
 -8 2 -2 0.06 0.2
 -8 2 -1 0.44 0.13
 -8 2 0 0.02 0.1
 -8 2 1 2.53 0.69
 -8 2 2 0.11 0.2
 -8 2 3 1.05 0.34
 -8 2 4 0.63 0.12
 -8 2 5 0.35 0.21
 -8 2 6 0.22 0.14
 -8 2 7 0.97 0.13
 -8 2 8 0.01 0.05
 -8 3 -3 0.37 0.24
 -8 3 -2 0.15 0.21
 -8 3 -1 0.91 0.14
 -8 3 0 0.33 0.13
 -8 3 1 0.06 0.2
 -8 3 2 0.16 0.19
 -8 3 3 0.84 0.33
 -8 3 4 0.24 0.18
 -8 3 5 0.04 0.17
 -8 3 6 0.14 0.17
 -8 3 7 0.05 0.18
 -8 3 8 0.12 0.22
 -8 4 -3 0.09 0.23
 -8 4 -2 0.07 0.21
 -8 4 -1 0.1 0.21
 -8 4 0 0.65 0.2
 -8 4 1 0.09 0.19
 -8 4 2 0.65 0.12
 -8 4 3 0.28 0.13
 -8 4 4 0.1 0.2
 -8 4 5 1.13 0.23
 -8 4 6 0.25 0.14
 -8 4 7 0.04 0.16
 -8 5 -3 0.11 0.19
 -8 5 -2 0.74 0.19
 -8 5 -1 0.1 0.16
 -8 5 0 0.64 0.32
 -8 5 1 0.16 0.2
 -8 5 2 0.1 0.24
 -8 5 3 0.07 0.21
 -8 5 4 0.36 0.13
 -8 5 5 0.06 0.2
 -8 5 6 0.16 0.2
 -8 5 7 0.22 0.19
 -8 6 -2 0.18 0.16
 -8 6 -1 0.02 0.12
 -8 6 0 0.24 0.18
 -8 6 1 0.16 0.21
 -8 6 2 0.22 0.19
 -8 6 3 0.24 0.19
 -8 6 4 0.59 0.14
 -8 6 5 0.23 0.15
 -8 6 6 0.1 0.21
 -8 7 -1 0.47 0.13
 -8 7 0 0.06 0.2
 -8 7 1 0.22 0.19
 -8 7 2 0.61 0.13
 -8 7 3 0.2 0.15
 -8 7 4 0.1 0.18
 -8 7 5 0.07 0.22
 -8 8 1 0.28 0.14
 -8 8 2 0.13 0.2
 -8 8 3 0.13 0.2
 -7 0 -5 0.57 0.18
 -7 0 -3 0.6 0.16
 -7 0 -1 0.12 0.21
 -7 0 1 0.09 0.26
 -7 0 3 4.36 0.19
 -7 0 5 0.91 0.17
 -7 0 7 0.63 0.19
 -7 0 9 0.12 0.24
 -7 1 -6 0.05 0.18
 -7 1 -5 0.23 0.25
 -7 1 -4 0.17 0.18
 -7 1 -3 0.1 0.16
 -7 1 -2 0.55 0.12
 -7 1 -1 0.51 0.12
 -7 1 0 3.92 0.89
 -7 1 1 5.59 1.1
 -7 1 2 5.81 0.92
 -7 1 3 2.1 0.22
 -7 1 4 0.55 0.16
 -7 1 5 0.68 0.12
 -7 1 6 0.22 0.12
 -7 1 7 0.52 0.12
 -7 1 8 0.09 0.2
 -7 1 9 0.01 0.07
 -7 1 10 0.2 0.17
 -7 2 -6 0.16 0.16
 -7 2 -5 0.31 0.24
 -7 2 -4 0.43 0.18
 -7 2 -3 0.08 0.18
 -7 2 -2 0.05 0.17
 -7 2 -1 0.47 0.18
 -7 2 0 0.03 0.11
 -7 2 1 0.13 0.19
 -7 2 2 1.64 0.23
 -7 2 3 1.86 0.37
 -7 2 4 3.36 0.22
 -7 2 5 1.43 0.12
 -7 2 6 0.07 0.2
 -7 2 7 0.06 0.19
 -7 2 8 0.1 0.17
 -7 2 9 0.06 0.2
 -7 2 10 0.27 0.16
 -7 3 -6 0.21 0.15
 -7 3 -5 0.03 0.13
 -7 3 -4 0.11 0.21
 -7 3 -3 0.42 0.14
 -7 3 -2 0.17 0.13
 -7 3 -1 1.79 0.12
 -7 3 0 0.89 0.21
 -7 3 1 2.6 0.47
 -7 3 2 2.33 0.42
 -7 3 3 1.2 0.12
 -7 3 4 0.37 0.21
 -7 3 5 0.41 0.19
 -7 3 6 1.55 0.13
 -7 3 7 0.1 0.17
 -7 3 8 0.15 0.2
 -7 3 9 0.28 0.19
 -7 4 -6 0.11 0.3
 -7 4 -5 0.13 0.2
 -7 4 -4 0.06 0.19
 -7 4 -3 0.04 0.16
 -7 4 -2 0.57 0.19
 -7 4 -1 0.2 0.15
 -7 4 0 0.69 0.12
 -7 4 1 0.42 0.12
 -7 4 2 1.19 0.12
 -7 4 3 2.73 0.2
 -7 4 4 5.26 0.79
 -7 4 5 1.47 0.19
 -7 4 6 0.6 0.12
 -7 4 7 0.1 0.2
 -7 4 8 0.07 0.21
 -7 4 9 0.38 0.13
 -7 5 -5 0.05 0.18
 -7 5 -4 0.1 0.18
 -7 5 -3 0.04 0.15
 -7 5 -2 0.77 0.25
 -7 5 -1 0.13 0.18
 -7 5 0 0.37 0.12
 -7 5 1 0.39 0.13
 -7 5 2 0.13 0.19
 -7 5 3 0.06 0.18
 -7 5 4 0.37 0.12
 -7 5 5 1.49 0.13
 -7 5 6 0.51 0.14
 -7 5 7 0.25 0.14
 -7 5 8 0.4 0.28
 -7 5 9 0.34 0.13
 -7 6 -5 0.1 0.25
 -7 6 -4 0.2 0.16
 -7 6 -3 0.01 0.09
 -7 6 -2 0.11 0.18
 -7 6 -1 0.59 0.16
 -7 6 0 0.17 0.18
 -7 6 1 0.13 0.18
 -7 6 2 0.89 0.33
 -7 6 3 3.37 0.14
 -7 6 4 1.47 0.13
 -7 6 5 1.62 0.13
 -7 6 6 1.5 0.22
 -7 6 7 0.17 0.16
 -7 6 8 1.07 0.13
 -7 7 -4 0.37 0.28
 -7 7 -3 0.15 0.21
 -7 7 -2 0.1 0.18
 -7 7 -1 0.15 0.16
 -7 7 0 0.11 0.21
 -7 7 1 0.63 0.12
 -7 7 2 0.13 0.18
 -7 7 3 0.12 0.18
 -7 7 4 0.24 0.18
 -7 7 5 0.59 0.12
 -7 7 6 0.21 0.18
 -7 7 7 0.04 0.16
 -7 7 8 0.2 0.19
 -7 8 -3 0.53 0.13
 -7 8 -2 0.18 0.16
 -7 8 -1 0.04 0.13
 -7 8 0 0.02 0.11
 -7 8 1 0.35 0.13
 -7 8 2 0.66 0.17
 -7 8 3 0.23 0.21
 -7 8 4 0.85 0.12
 -7 8 5 0.81 0.12
 -7 8 6 0.18 0.15
 -7 8 7 1.86 0.13
 -7 9 -2 0.14 0.21
 -7 9 -1 0.15 0.21
 -7 9 0 0.57 0.3
 -7 9 1 0.14 0.17
 -7 9 2 0.84 0.12
 -7 9 3 0.06 0.2
 -7 9 4 0.1 0.24
 -7 9 5 0.03 0.11
 -7 9 6 0.47 0.13
 -7 10 -1 0.13 0.2
 -7 10 0 0.16 0.2
 -7 10 1 0.14 0.2
 -7 10 2 0.19 0.2
 -7 10 3 0.29 0.19
 -7 10 4 0.02 0.12
 -7 10 5 0.06 0.18
 -6 0 -4 4.01 0.19
 -6 0 -2 0.82 0.19
 -6 0 0 2.3 0.21
 -6 0 2 8.73 0.24
 -6 0 4 0.57 0.18
 -6 0 6 19.43 0.53
 -6 0 8 7.64 0.21
 -6 0 10 0.22 0.2
 -6 1 -5 0.55 0.13
 -6 1 -4 1.65 0.11
 -6 1 -3 1.11 0.11
 -6 1 -2 0.99 0.1
 -6 1 -1 0.01 0.09
 -6 1 0 0.68 0.18
 -6 1 1 1.23 0.21
 -6 1 2 0.24 0.22
 -6 1 3 0.11 0.21
 -6 1 4 9.23 0.49
 -6 1 5 0.69 0.19
 -6 1 6 1.2 0.14
 -6 1 7 0.28 0.12
 -6 1 8 0.82 0.12
 -6 1 9 0.22 0.13
 -6 1 10 0.04 0.15
 -6 1 11 0.25 0.12
 -6 2 -5 2.61 0.43
 -6 2 -4 0.1 0.2
 -6 2 -3 1.48 0.21
 -6 2 -2 2.77 0.12
 -6 2 -1 0.41 0.27
 -6 2 0 2.07 0.26
 -6 2 1 4.22 0.21
 -6 2 2 0.39 0.13
 -6 2 3 1.78 0.13
 -6 2 4 0.28 0.14
 -6 2 5 7.72 0.61
 -6 2 6 0.19 0.12
 -6 2 7 11.46 0.4
 -6 2 8 0.2 0.15
 -6 2 9 0.94 0.12
 -6 2 10 0.66 0.15
 -6 2 11 0.22 0.17
 -6 3 -5 0.07 0.14
 -6 3 -4 0.25 0.13
 -6 3 -3 2.5 0.12
 -6 3 -2 0.03 0.14
 -6 3 -1 0.14 0.21
 -6 3 0 0.11 0.18
 -6 3 1 0.23 0.13
 -6 3 2 0.09 0.19
 -6 3 3 14.93 0.27
 -6 3 4 0.46 0.19
 -6 3 5 13.21 0.69
 -6 3 6 0.16 0.17
 -6 3 7 0.05 0.17
 -6 3 8 0.09 0.17
 -6 3 9 0.83 0.12
 -6 3 10 0.14 0.21
 -6 3 11 0.16 0.18
 -6 4 -5 0.09 0.15
 -6 4 -4 0.54 0.12
 -6 4 -3 2.13 0.12
 -6 4 -2 0.02 0.11
 -6 4 -1 6.29 0.17
 -6 4 0 0.25 0.18
 -6 4 1 0.16 0.19
 -6 4 2 1.01 0.13
 -6 4 3 2.21 0.27
 -6 4 4 0.68 0.11
 -6 4 5 0.17 0.16
 -6 4 6 3.8 0.48
 -6 4 7 0.3 0.12
 -6 4 8 1.06 0.11
 -6 4 9 0.8 0.32
 -6 4 10 0.13 0.19
 -6 5 -5 0.07 0.21
 -6 5 -4 0.47 0.11
 -6 5 -3 0.1 0.18
 -6 5 -2 1.17 0.12
 -6 5 -1 0.23 0.12
 -6 5 0 0.68 0.12
 -6 5 1 1.57 0.12
 -6 5 2 7.12 0.14
 -6 5 3 0.16 0.16
 -6 5 4 18.49 0.37
 -6 5 5 0.53 0.11
 -6 5 6 3.37 0.13
 -6 5 7 0.18 0.14
 -6 5 8 0.54 0.12
 -6 5 9 0.63 0.18
 -6 5 10 0.22 0.15
 -6 6 -5 0.16 0.19
 -6 6 -4 0.03 0.11
 -6 6 -3 0.03 0.12
 -6 6 -2 2.67 0.13
 -6 6 -1 0.15 0.15
 -6 6 0 1.22 0.12
 -6 6 1 0.02 0.09
 -6 6 2 1.37 0.12
 -6 6 3 0.24 0.12
 -6 6 4 0.19 0.17
 -6 6 5 0.35 0.12
 -6 6 6 1.76 0.12
 -6 6 7 0.11 0.18
 -6 6 8 0.19 0.18
 -6 6 9 0.11 0.16
 -6 6 10 0.63 0.13
 -6 7 -5 0.07 0.22
 -6 7 -4 0.42 0.19
 -6 7 -3 0.19 0.14
 -6 7 -2 0.77 0.51
 -6 7 -1 0.68 0.12
 -6 7 0 3.11 0.25
 -6 7 1 2.82 0.3
 -6 7 2 2.3 0.12
 -6 7 3 8.14 0.51
 -6 7 4 0.14 0.14
 -6 7 5 4.12 0.13
 -6 7 6 0.22 0.17
 -6 7 7 0.04 0.17
 -6 7 8 1.24 0.12
 -6 7 9 0.05 0.16
 -6 8 -5 0.43 0.13
 -6 8 -4 0.19 0.15
 -6 8 -3 0.01 0.05
 -6 8 -2 0.12 0.18
 -6 8 -1 0.3 0.14
 -6 8 0 0.03 0.14
 -6 8 1 0.37 0.13
 -6 8 2 0.86 0.17
 -6 8 3 0.47 0.12
 -6 8 4 0.32 0.12
 -6 8 5 1.14 0.13
 -6 8 6 0.52 0.12
 -6 8 7 1.32 0.13
 -6 8 8 0.3 0.14
 -6 8 9 0.16 0.18
 -6 9 -5 0.29 0.14
 -6 9 -4 0.04 0.17
 -6 9 -3 0.47 0.19
 -6 9 -2 0.17 0.15
 -6 9 -1 0.69 0.27
 -6 9 0 0.89 0.27
 -6 9 1 3.3 0.44
 -6 9 2 2.1 0.28
 -6 9 3 0.3 0.12
 -6 9 4 1.14 0.12
 -6 9 5 0.08 0.17
 -6 9 6 0.14 0.18
 -6 9 7 0.9 0.18
 -6 9 8 0.15 0.15
 -6 10 -4 0.32 0.14
 -6 10 -3 0.08 0.23
 -6 10 -2 0.17 0.16
 -6 10 -1 0.2 0.19
 -6 10 0 0.3 0.13
 -6 10 1 0.16 0.15
 -6 10 2 0.2 0.14
 -6 10 3 0.86 0.12
 -6 10 4 0.31 0.13
 -6 10 5 0.19 0.19
 -6 10 6 1.23 0.18
 -6 10 7 0.52 0.13
 -6 11 -3 0.13 0.21
 -6 11 -2 0.19 0.2
 -6 11 -1 0.17 0.2
 -6 11 0 0.9 0.12
 -6 11 1 0.74 0.36
 -6 11 2 0.23 0.15
 -6 11 3 0.07 0.2
 -6 11 4 0.14 0.21
 -6 11 5 0.21 0.17
 -6 11 6 0.51 0.35
 -6 12 -1 0.47 0.15
 -6 12 0 0.1 0.25
 -6 12 1 0.21 0.15
 -6 12 2 0.42 0.13
 -6 12 3 0.09 0.2
 -6 12 4 0.13 0.19
 -5 0 -3 6.71 0.22
 -5 0 -1 0.31 0.16
 -5 0 1 20.22 0.5
 -5 0 3 2.22 0.15
 -5 0 5 11.4 0.28
 -5 0 7 0.76 0.19
 -5 0 9 2.28 0.17
 -5 0 11 0.07 0.24
 -5 1 -4 6.96 0.16
 -5 1 -3 1.32 0.19
 -5 1 -2 0.2 0.17
 -5 1 -1 8.74 0.16
 -5 1 0 6.37 0.91
 -5 1 1 7.77 0.34
 -5 1 2 4.09 0.12
 -5 1 3 0.3 0.19
 -5 1 4 7.86 0.15
 -5 1 5 6.09 0.17
 -5 1 6 21 0.41
 -5 1 7 19.23 0.34
 -5 1 8 7.66 0.38
 -5 1 9 1.79 0.13
 -5 1 10 0.1 0.18
 -5 1 11 0.34 0.13
 -5 1 12 0.22 0.13
 -5 2 -4 3.11 0.31
 -5 2 -3 6.11 0.43
 -5 2 -2 7.2 0.64
 -5 2 -1 6.3 0.2
 -5 2 0 0.97 0.1
 -5 2 1 0.19 0.12
 -5 2 2 6.37 0.14
 -5 2 3 0.82 0.11
 -5 2 4 4.24 0.13
 -5 2 5 3.34 0.13
 -5 2 6 4.71 0.15
 -5 2 7 0.11 0.17
 -5 2 8 0.97 0.14
 -5 2 9 2.41 0.12
 -5 2 10 1.06 0.12
 -5 2 11 0.61 0.13
 -5 3 -4 1.51 0.14
 -5 3 -3 2.39 0.36
 -5 3 -2 4.17 0.31
 -5 3 -1 0.05 0.18
 -5 3 0 14.22 0.35
 -5 3 1 2.56 0.21
 -5 3 2 0.28 0.11
 -5 3 3 12.76 0.24
 -5 3 4 2.3 0.12
 -5 3 5 15.48 0.3
 -5 3 6 6.92 0.58
 -5 3 7 5.44 0.18
 -5 3 8 5.3 0.2
 -5 3 9 0.67 0.22
 -5 3 10 0.12 0.19
 -5 3 11 0.06 0.19
 -5 4 -4 3.03 0.21
 -5 4 -3 6.6 0.91
 -5 4 -2 17.4 1.4
 -5 4 -1 5.56 0.14
 -5 4 0 2.56 0.12
 -5 4 1 0.56 0.11
 -5 4 2 0.04 0.15
 -5 4 3 1.91 0.12
 -5 4 4 5.27 0.14
 -5 4 5 3.06 0.14
 -5 4 6 1.96 0.14
 -5 4 7 0.3 0.11
 -5 4 8 3.56 0.13
 -5 4 9 1.95 0.28
 -5 4 10 3.49 0.13
 -5 4 11 0.29 0.18
 -5 5 -4 0.01 0.06
 -5 5 -3 0.64 0.13
 -5 5 -2 1.16 0.14
 -5 5 -1 8.91 0.63
 -5 5 0 0.93 0.14
 -5 5 1 1.37 0.17
 -5 5 2 3.87 0.13
 -5 5 3 4.71 0.48
 -5 5 4 11.05 0.26
 -5 5 5 0.05 0.18
 -5 5 6 0.97 0.11
 -5 5 7 3.26 0.12
 -5 5 8 0.31 0.26
 -5 5 9 0.15 0.18
 -5 5 10 0.18 0.15
 -5 5 11 0.15 0.15
 -5 6 -4 1.64 0.12
 -5 6 -3 6.67 0.24
 -5 6 -2 5.94 0.16
 -5 6 -1 6.1 0.16
 -5 6 0 10.16 0.67
 -5 6 1 0.59 0.12
 -5 6 2 10.05 0.48
 -5 6 3 0.22 0.18
 -5 6 4 2.28 0.13
 -5 6 5 4.23 1.4
 -5 6 6 0.46 0.11
 -5 6 7 0.2 0.12
 -5 6 8 1.6 0.12
 -5 6 9 4.06 0.14
 -5 6 10 0.63 0.13
 -5 6 11 0.44 0.13
 -5 7 -4 0.18 0.15
 -5 7 -3 0.28 0.12
 -5 7 -2 1.65 0.22
 -5 7 -1 2.07 0.31
 -5 7 0 2.03 0.14
 -5 7 1 0.58 0.22
 -5 7 2 0.47 0.3
 -5 7 3 3.53 0.17
 -5 7 4 0.3 0.16
 -5 7 5 0.22 0.13
 -5 7 6 0.71 0.12
 -5 7 7 2.17 0.12
 -5 7 8 0.25 0.13
 -5 7 9 0.01 0.08
 -5 7 10 0.1 0.17
 -5 8 -4 0.54 0.11
 -5 8 -3 0.96 0.24
 -5 8 -2 1.82 0.12
 -5 8 -1 4.49 0.47
 -5 8 0 0.22 0.12
 -5 8 1 13.62 1.6
 -5 8 2 1.05 0.11
 -5 8 3 5.34 0.35
 -5 8 4 0.99 0.11
 -5 8 5 0.43 0.12
 -5 8 6 0.41 0.13
 -5 8 7 1.58 0.12
 -5 8 8 1.05 0.12
 -5 8 9 0.27 0.12
 -5 8 10 0.59 0.13
 -5 9 -4 1.85 0.13
 -5 9 -3 0.11 0.17
 -5 9 -2 0.08 0.15
 -5 9 -1 0.07 0.18
 -5 9 0 1.98 0.12
 -5 9 1 0.16 0.16
 -5 9 2 0.22 0.17
 -5 9 3 0.7 0.11
 -5 9 4 0.35 0.11
 -5 9 5 1.37 0.12
 -5 9 6 2.25 0.26
 -5 9 7 0.14 0.16
 -5 9 8 1.64 0.18
 -5 9 9 0.07 0.2
 -5 10 -4 0.15 0.19
 -5 10 -3 0.16 0.19
 -5 10 -2 0.14 0.19
 -5 10 -1 0.17 0.13
 -5 10 0 4.41 0.44
 -5 10 1 1.11 0.12
 -5 10 2 6.12 0.81
 -5 10 3 0.19 0.13
 -5 10 4 0.17 0.14
 -5 10 5 0.27 0.15
 -5 10 6 1.53 0.12
 -5 10 7 0.12 0.18
 -5 10 8 0.05 0.13
 -5 11 -4 0.03 0.14
 -5 11 -3 0.43 0.18
 -5 11 -2 0.12 0.19
 -5 11 -1 0.4 0.19
 -5 11 0 0.23 0.13
 -5 11 1 0.22 0.13
 -5 11 2 1.17 0.13
 -5 11 3 0.05 0.17
 -5 11 4 3.87 0.47
 -5 11 5 0.58 0.12
 -5 11 6 0.96 0.3
 -5 11 7 1.53 0.23
 -5 11 8 0.05 0.2
 -5 12 -4 0.02 0.12
 -5 12 -3 0.23 0.16
 -5 12 -2 0.24 0.19
 -5 12 -1 0.08 0.21
 -5 12 0 0.14 0.2
 -5 12 1 1.79 0.16
 -5 12 2 0.17 0.19
 -5 12 3 0.17 0.16
 -5 12 4 0.13 0.16
 -5 12 5 0.82 0.13
 -5 12 6 0.14 0.16
 -5 13 -2 0.11 0.19
 -5 13 -1 0.46 0.13
 -5 13 0 0.16 0.18
 -5 13 1 0.2 0.17
 -5 13 2 0.14 0.21
 -5 13 3 2.74 0.21
 -5 13 4 0.12 0.18
 -5 13 5 1.67 0.13
 -5 14 1 0.06 0.14
 -5 14 2 0.17 0.23
 -4 0 -2 12.86 0.32
 -4 0 0 190.22 1.73
 -4 0 2 111.96 1.3
 -4 0 4 1.91 0.19
 -4 0 6 5.89 0.19
 -4 0 8 7.7 0.24
 -4 0 10 0.56 0.16
 -4 0 12 3.01 0.2
 -4 1 -3 0.44 0.14
 -4 1 -2 17.66 1.81
 -4 1 -1 0.02 0.09
 -4 1 0 1.18 0.1
 -4 1 1 13.16 0.24
 -4 1 2 41.42 0.58
 -4 1 3 6.88 0.13
 -4 1 4 2.83 0.1
 -4 1 5 4.43 0.12
 -4 1 6 6.05 0.14
 -4 1 7 3.14 0.13
 -4 1 8 0.08 0.21
 -4 1 9 0.18 0.12
 -4 1 10 3.21 0.26
 -4 1 11 0.17 0.15
 -4 1 12 0.15 0.15
 -4 2 -3 0.16 0.12
 -4 2 -2 1.22 0.2
 -4 2 -1 53.28 0.68
 -4 2 0 1.75 0.14
 -4 2 1 125.19 1.43
 -4 2 2 3.59 0.1
 -4 2 3 14.41 0.28
 -4 2 4 25.51 0.59
 -4 2 5 1.04 0.11
 -4 2 6 1.78 0.12
 -4 2 7 8.17 0.16
 -4 2 8 1.97 0.14
 -4 2 9 0.72 0.11
 -4 2 10 0.37 0.12
 -4 2 11 1.93 0.15
 -4 2 12 0.03 0.14
 -4 3 -3 22.35 2.73
 -4 3 -2 3.48 0.52
 -4 3 -1 38.97 0.71
 -4 3 0 2.7 0.3
 -4 3 1 6.2 0.19
 -4 3 2 0.14 0.11
 -4 3 3 38.25 0.59
 -4 3 4 1.73 0.11
 -4 3 5 0.14 0.16
 -4 3 6 0.79 0.12
 -4 3 7 0.11 0.19
 -4 3 8 0.11 0.16
 -4 3 9 7.64 0.15
 -4 3 10 0.02 0.1
 -4 3 11 2.84 0.13
 -4 3 12 0.06 0.19
 -4 4 -3 4.91 0.26
 -4 4 -2 3.75 0.27
 -4 4 -1 0.83 0.1
 -4 4 0 26.1 1.36
 -4 4 1 2.5 0.1
 -4 4 2 13.51 0.27
 -4 4 3 26.04 0.84
 -4 4 4 0.54 0.15
 -4 4 5 20.92 0.37
 -4 4 6 2.16 0.12
 -4 4 7 1.37 0.13
 -4 4 8 1.68 0.11
 -4 4 9 3.29 0.13
 -4 4 10 0.07 0.21
 -4 4 11 0.13 0.16
 -4 4 12 0.46 0.12
 -4 5 -3 0.86 0.12
 -4 5 -2 42.23 0.7
 -4 5 -1 4.13 0.13
 -4 5 0 7.38 0.26
 -4 5 1 1.1 0.1
 -4 5 2 20.1 0.35
 -4 5 3 5.38 0.18
 -4 5 4 12.29 0.21
 -4 5 5 0.65 0.12
 -4 5 6 1.48 0.13
 -4 5 7 2.47 0.14
 -4 5 8 7.25 0.23
 -4 5 9 0.14 0.14
 -4 5 10 6.3 0.47
 -4 5 11 0.12 0.18
 -4 6 -3 1.02 0.13
 -4 6 -2 0.22 0.15
 -4 6 -1 0.62 0.11
 -4 6 0 9.61 0.18
 -4 6 1 0.16 0.12
 -4 6 2 0.14 0.15
 -4 6 3 0.05 0.16
 -4 6 4 17.7 0.58
 -4 6 5 0.99 0.12
 -4 6 6 0.38 0.13
 -4 6 7 0.36 0.16
 -4 6 8 4.41 0.13
 -4 6 9 0.06 0.19
 -4 6 10 0.3 0.13
 -4 6 11 0.03 0.11
 -4 7 -3 12.14 0.38
 -4 7 -2 0.57 0.12
 -4 7 -1 12.3 0.23
 -4 7 0 0.12 0.18
 -4 7 1 0.13 0.16
 -4 7 2 9.91 0.25
 -4 7 3 6.41 0.34
 -4 7 4 0.06 0.19
 -4 7 5 3.57 0.36
 -4 7 6 9.98 0.55
 -4 7 7 4.76 0.13
 -4 7 8 1.8 0.13
 -4 7 9 5.01 0.17
 -4 7 10 0.13 0.2
 -4 7 11 0.65 0.13
 -4 8 -3 0.53 0.2
 -4 8 -2 0.42 0.19
 -4 8 -1 4.66 0.15
 -4 8 0 2.9 0.14
 -4 8 1 9.04 0.18
 -4 8 2 1.11 0.13
 -4 8 3 0.22 0.13
 -4 8 4 1.49 0.16
 -4 8 5 0.48 0.1
 -4 8 6 0.67 0.11
 -4 8 7 1.86 0.11
 -4 8 8 0.37 0.12
 -4 8 9 0.51 0.16
 -4 8 10 0.05 0.16
 -4 9 -3 0.7 0.11
 -4 9 -2 1.15 0.14
 -4 9 -1 0.05 0.16
 -4 9 0 0.22 0.18
 -4 9 1 5.11 0.16
 -4 9 2 0.18 0.18
 -4 9 3 2.26 0.25
 -4 9 4 0.58 0.11
 -4 9 5 5.8 0.15
 -4 9 6 2.46 0.16
 -4 9 7 6.51 0.69
 -4 9 8 2.36 0.13
 -4 9 9 0.27 0.13
 -4 9 10 0.18 0.16
 -4 10 -3 2.09 0.12
 -4 10 -2 0.82 0.11
 -4 10 -1 0.47 0.11
 -4 10 0 6.23 0.14
 -4 10 1 2.04 0.16
 -4 10 2 3.53 0.43
 -4 10 3 1.1 0.17
 -4 10 4 0.65 0.35
 -4 10 5 2.58 0.2
 -4 10 6 0.75 0.12
 -4 10 7 0.03 0.13
 -4 10 8 0.16 0.18
 -4 10 9 0.18 0.16
 -4 11 -3 0.03 0.13
 -4 11 -2 0.24 0.17
 -4 11 -1 0.66 0.12
 -4 11 0 0.65 0.12
 -4 11 1 0.06 0.17
 -4 11 2 2.12 0.22
 -4 11 3 0.45 0.11
 -4 11 4 0.24 0.12
 -4 11 5 0.22 0.17
 -4 11 6 3.57 0.13
 -4 11 7 0.87 0.12
 -4 11 8 0.37 0.12
 -4 12 -3 0.31 0.13
 -4 12 -2 0.48 0.12
 -4 12 -1 1.15 0.13
 -4 12 0 0.42 0.14
 -4 12 1 1.73 0.16
 -4 12 2 0.24 0.12
 -4 12 3 1.94 0.17
 -4 12 4 3.74 0.22
 -4 12 5 1.53 0.15
 -4 12 6 0.25 0.14
 -4 12 7 0.18 0.17
 -4 12 8 0.35 0.13
 -4 13 -3 0.05 0.18
 -4 13 -2 1.36 0.15
 -4 13 -1 0.15 0.17
 -4 13 0 0.17 0.19
 -4 13 1 0.22 0.15
 -4 13 2 0.92 0.12
 -4 13 3 0.15 0.2
 -4 13 4 0.22 0.17
 -4 13 5 0.46 0.14
 -4 13 6 0.41 0.15
 -4 14 -3 0.18 0.18
 -4 14 -2 0.41 0.21
 -4 14 -1 0.04 0.17
 -4 14 0 0.24 0.2
 -4 14 1 0.2 0.14
 -4 14 2 0.25 0.14
 -4 14 3 2.09 0.13
 -4 14 4 1.24 0.13
 -4 14 5 0.91 0.13
 -4 15 0 0.15 0.2
 -4 15 1 0.03 0.11
 -4 15 2 0.06 0.23
 -3 0 -1 52.39 0.8
 -3 0 1 1.9 0.1
 -3 0 3 89.35 1.07
 -3 0 5 1.82 0.13
 -3 0 7 10.32 0.29
 -3 0 9 0.29 0.17
 -3 0 11 3.69 0.2
 -3 1 -2 22.71 2.11
 -3 1 -1 21.48 1.42
 -3 1 0 158.13 7.33
 -3 1 1 264.87 10.24
 -3 1 2 152.03 4.91
 -3 1 3 16.98 0.26
 -3 1 4 1.24 0.54
 -3 1 5 42.43 1
 -3 1 6 16.5 0.32
 -3 1 7 5.2 0.13
 -3 1 8 3.19 0.13
 -3 1 9 0.13 0.13
 -3 1 10 1.61 0.18
 -3 1 11 0.58 0.12
 -3 1 12 1.51 0.09
 -3 2 -2 4.24 0.3
 -3 2 -1 16.16 0.68
 -3 2 0 21.39 0.57
 -3 2 1 4.43 0.16
 -3 2 2 47.59 1.33
 -3 2 3 79.49 2.66
 -3 2 4 47.99 0.9
 -3 2 5 15.44 0.29
 -3 2 6 1.07 0.22
 -3 2 7 0.07 0.19
 -3 2 8 0.48 0.12
 -3 2 9 0.23 0.19
 -3 2 10 2.62 0.12
 -3 2 11 0.19 0.17
 -3 2 12 1.04 0.1
 -3 3 -2 14.19 0.27
 -3 3 -1 33.37 2.13
 -3 3 0 42.01 3.88
 -3 3 1 33.5 0.48
 -3 3 2 64.29 0.88
 -3 3 3 5.09 0.12
 -3 3 4 18.15 0.29
 -3 3 5 0.83 0.16
 -3 3 6 14.3 0.25
 -3 3 7 4.26 0.13
 -3 3 8 2.23 0.21
 -3 3 9 4.67 0.13
 -3 3 10 0.85 0.11
 -3 3 11 1.97 0.1
 -3 3 12 0.57 0.1
 -3 4 -2 12.9 0.22
 -3 4 -1 3.89 2.38
 -3 4 0 8.44 0.46
 -3 4 1 13.87 0.63
 -3 4 2 86.61 0.77
 -3 4 3 62.75 0.82
 -3 4 4 91.6 0.87
 -3 4 5 15.55 0.4
 -3 4 6 1.32 0.19
 -3 4 7 0.88 0.11
 -3 4 8 0.27 0.17
 -3 4 9 1.39 0.11
 -3 4 10 0.63 0.17
 -3 4 11 0.74 0.1
 -3 4 12 0.06 0.16
 -3 5 -2 21.98 0.34
 -3 5 -1 1.25 0.1
 -3 5 0 0.43 0.09
 -3 5 1 24.14 0.78
 -3 5 2 0.95 0.09
 -3 5 3 0.05 0.14
 -3 5 4 2.89 0.11
 -3 5 5 10.24 0.2
 -3 5 6 1.21 0.11
 -3 5 7 0.44 0.12
 -3 5 8 2.21 0.15
 -3 5 9 3.75 0.18
 -3 5 10 1.91 0.12
 -3 5 11 0.11 0.14
 -3 5 12 0.13 0.12
 -3 6 -2 0.07 0.15
 -3 6 -1 16.22 0.56
 -3 6 0 13.18 0.9
 -3 6 1 4.67 0.11
 -3 6 2 30.5 0.54
 -3 6 3 79.78 0.88
 -3 6 4 23.98 0.95
 -3 6 5 11.48 0.22
 -3 6 6 14.05 0.26
 -3 6 7 1.74 0.29
 -3 6 8 4.64 0.38
 -3 6 9 0.2 0.12
 -3 6 10 0.36 0.1
 -3 6 11 0.57 0.1
 -3 6 12 0.18 0.16
 -3 7 -2 2.13 0.14
 -3 7 -1 0.03 0.11
 -3 7 0 0.36 0.11
 -3 7 1 19.32 0.47
 -3 7 2 0.67 0.27
 -3 7 3 0.65 0.12
 -3 7 4 1.61 0.11
 -3 7 5 12.43 1.76
 -3 7 6 0.04 0.16
 -3 7 7 0.71 0.19
 -3 7 8 1.61 0.14
 -3 7 9 1.12 0.12
 -3 7 10 0.25 0.13
 -3 7 11 0.12 0.17
 -3 8 -2 1.11 0.25
 -3 8 -1 8.4 0.31
 -3 8 0 2.05 0.11
 -3 8 1 16.47 0.52
 -3 8 2 10.61 0.21
 -3 8 3 6.68 0.23
 -3 8 4 8.97 0.23
 -3 8 5 11.47 0.72
 -3 8 6 0.85 0.13
 -3 8 7 11.47 0.84
 -3 8 8 0.33 0.15
 -3 8 9 1.22 0.27
 -3 8 10 0.46 0.1
 -3 8 11 0.31 0.1
 -3 9 -2 0.23 0.14
 -3 9 -1 1.48 0.12
 -3 9 0 13.3 0.25
 -3 9 1 0.17 0.14
 -3 9 2 12.98 0.24
 -3 9 3 0.07 0.22
 -3 9 4 3.13 0.14
 -3 9 5 0.14 0.15
 -3 9 6 5.54 0.61
 -3 9 7 0.2 0.12
 -3 9 8 0.07 0.2
 -3 9 9 0.15 0.2
 -3 9 10 0.18 0.12
 -3 10 -2 0.75 0.11
 -3 10 -1 0.39 0.34
 -3 10 0 9.71 0.46
 -3 10 1 0.05 0.18
 -3 10 2 1.04 0.16
 -3 10 3 0.62 0.39
 -3 10 4 0.33 0.11
 -3 10 5 0.59 0.11
 -3 10 6 6.19 0.29
 -3 10 7 0.76 0.13
 -3 10 8 2.87 0.38
 -3 10 9 0.16 0.12
 -3 10 10 0.14 0.13
 -3 11 -2 7.5 0.22
 -3 11 -1 1.46 0.12
 -3 11 0 1.68 0.1
 -3 11 1 7.19 0.22
 -3 11 2 0.07 0.19
 -3 11 3 0.07 0.19
 -3 11 4 0.65 0.11
 -3 11 5 3.44 0.19
 -3 11 6 0.3 0.12
 -3 11 7 0.36 0.23
 -3 11 8 0.68 0.2
 -3 11 9 0.01 0.05
 -3 12 -2 0.52 0.11
 -3 12 -1 2.66 0.25
 -3 12 0 0.16 0.16
 -3 12 1 0.5 0.12
 -3 12 2 0.21 0.12
 -3 12 3 1.22 0.12
 -3 12 4 0.92 0.12
 -3 12 5 0.33 0.13
 -3 12 6 0.33 0.13
 -3 12 7 1.81 0.12
 -3 12 8 0.04 0.15
 -3 13 -2 0.11 0.18
 -3 13 -1 4.06 0.14
 -3 13 0 0.33 0.12
 -3 13 1 0.14 0.17
 -3 13 2 0.25 0.13
 -3 13 3 0.29 0.2
 -3 13 4 0.27 0.13
 -3 13 5 0.72 0.12
 -3 13 6 0.17 0.13
 -3 13 7 0.3 0.17
 -3 14 -2 0.31 0.17
 -3 14 -1 0.68 0.18
 -3 14 0 0.35 0.13
 -3 14 1 0.71 0.55
 -3 14 2 0.66 0.12
 -3 14 3 0.69 0.14
 -3 14 4 0.73 0.13
 -3 14 5 0.32 0.12
 -3 14 6 0.16 0.18
 -3 15 -2 2.22 0.16
 -3 15 -1 0.21 0.18
 -3 15 0 0.24 0.13
 -3 15 1 0.21 0.14
 -3 15 2 0.11 0.19
 -3 15 3 0.2 0.17
 -3 15 4 0.45 0.17
 -2 0 0 66.77 0.71
 -2 0 2 202.43 1.33
 -2 0 4 78.66 0.95
 -2 0 6 194.44 1.79
 -2 0 8 24.28 0.41
 -2 0 10 0.1 0.16
 -2 0 12 0.19 0.17
 -2 1 -1 54.29 2.81
 -2 1 0 95.89 2.65
 -2 1 1 129.84 5.23
 -2 1 2 8.85 0.16
 -2 1 3 10.23 0.29
 -2 1 4 154.95 2.02
 -2 1 5 10.13 0.19
 -2 1 6 3.03 0.16
 -2 1 7 0.53 0.1
 -2 1 8 5.11 0.14
 -2 1 9 0.22 0.11
 -2 1 10 0.11 0.15
 -2 1 11 1.3 0.09
 -2 1 12 0.66 0.12
 -2 1 13 0.22 0.15
 -2 2 -1 9.93 0.36
 -2 2 0 14.17 0.27
 -2 2 1 101.95 1.28
 -2 2 2 102.25 1.36
 -2 2 3 0.58 0.16
 -2 2 4 23.36 0.41
 -2 2 5 138.99 1.45
 -2 2 6 0.09 0.16
 -2 2 7 58.68 0.78
 -2 2 8 1.31 0.14
 -2 2 9 1.52 0.09
 -2 2 10 1.8 0.08
 -2 2 11 0.1 0.16
 -2 2 12 0.14 0.17
 -2 3 -1 4.29 0.38
 -2 3 0 5.28 0.33
 -2 3 1 0.04 0.11
 -2 3 2 1.7 0.07
 -2 3 3 229.86 6.72
 -2 3 4 0.16 0.12
 -2 3 5 80.44 0.78
 -2 3 6 0.26 0.18
 -2 3 7 4.21 0.17
 -2 3 8 1.73 0.15
 -2 3 9 5.22 0.12
 -2 3 10 1.34 0.09
 -2 3 11 0.07 0.14
 -2 3 12 0.39 0.13
 -2 4 -1 97.66 4.26
 -2 4 0 0.12 0.09
 -2 4 1 40.06 0.95
 -2 4 2 4.85 0.13
 -2 4 3 114.41 2.12
 -2 4 4 16.03 0.54
 -2 4 5 0.06 0.16
 -2 4 6 24.21 0.71
 -2 4 7 0.17 0.13
 -2 4 8 2.51 0.1
 -2 4 9 4.26 0.09
 -2 4 10 0.07 0.14
 -2 4 11 0.99 0.1
 -2 4 12 0.13 0.16
 -2 5 -1 11.04 0.63
 -2 5 0 4.83 0.2
 -2 5 1 20.48 0.43
 -2 5 2 75.4 0.7
 -2 5 3 1.89 0.23
 -2 5 4 123.62 3.47
 -2 5 5 2.72 0.21
 -2 5 6 2.35 0.31
 -2 5 7 2.57 0.19
 -2 5 8 8.78 0.27
 -2 5 9 2.02 0.07
 -2 5 10 1.33 0.1
 -2 5 11 0.08 0.17
 -2 5 12 0.1 0.15
 -2 6 -1 0.08 0.13
 -2 6 0 4.93 0.11
 -2 6 1 0.39 0.09
 -2 6 2 58.33 2.44
 -2 6 3 1.18 0.1
 -2 6 4 3.12 0.21
 -2 6 5 0.13 0.15
 -2 6 6 7.45 0.15
 -2 6 7 0.27 0.11
 -2 6 8 0.19 0.11
 -2 6 9 0.1 0.14
 -2 6 10 1.83 0.15
 -2 6 11 0.26 0.12
 -2 6 12 0.06 0.13
 -2 7 -1 25.52 0.6
 -2 7 0 68.41 0.74
 -2 7 1 36.18 0.98
 -2 7 2 11.85 0.36
 -2 7 3 57.48 2.07
 -2 7 4 4.97 0.13
 -2 7 5 11.62 0.35
 -2 7 6 0.04 0.15
 -2 7 7 1.09 0.13
 -2 7 8 2.92 0.21
 -2 7 9 1.74 0.25
 -2 7 10 0.05 0.16
 -2 7 11 0.26 0.1
 -2 8 -1 6.23 0.13
 -2 8 0 0.03 0.11
 -2 8 1 4.68 0.12
 -2 8 2 6.45 0.13
 -2 8 3 2.84 0.12
 -2 8 4 0.32 0.14
 -2 8 5 9.41 0.23
 -2 8 6 5.96 0.13
 -2 8 7 4.04 0.1
 -2 8 8 0.63 0.09
 -2 8 9 0.19 0.15
 -2 8 10 0.47 0.1
 -2 8 11 0.06 0.16
 -2 9 -1 26.57 0.56
 -2 9 0 16.55 0.42
 -2 9 1 43.79 1.59
 -2 9 2 14.52 0.53
 -2 9 3 0.26 0.12
 -2 9 4 2.34 0.17
 -2 9 5 0.72 0.13
 -2 9 6 0.12 0.16
 -2 9 7 1.78 0.13
 -2 9 8 0.1 0.16
 -2 9 9 0.28 0.2
 -2 9 10 0.09 0.17
 -2 10 -1 3.41 0.13
 -2 10 0 0.57 0.21
 -2 10 1 3.21 0.13
 -2 10 2 0.06 0.2
 -2 10 3 3.49 0.14
 -2 10 4 5.52 0.22
 -2 10 5 2.43 0.2
 -2 10 6 6.88 0.44
 -2 10 7 1.8 0.18
 -2 10 8 0.87 0.09
 -2 10 9 0.38 0.23
 -2 10 10 0.13 0.17
 -2 11 -1 2.4 0.14
 -2 11 0 15.08 1.22
 -2 11 1 4.08 0.35
 -2 11 2 3.59 0.15
 -2 11 3 0.2 0.11
 -2 11 4 0.3 0.15
 -2 11 5 0.82 0.18
 -2 11 6 0.11 0.16
 -2 11 7 0.32 0.12
 -2 11 8 0.18 0.13
 -2 11 9 0.47 0.2
 -2 12 -1 2.25 0.12
 -2 12 0 0.39 0.12
 -2 12 1 0.05 0.16
 -2 12 2 4.32 0.13
 -2 12 3 3.12 0.17
 -2 12 4 0.42 0.18
 -2 12 5 3.42 0.25
 -2 12 6 0.64 0.1
 -2 12 7 0.94 0.12
 -2 12 8 0.28 0.17
 -2 12 9 0.29 0.12
 -2 13 -1 0.27 0.12
 -2 13 0 1.33 0.12
 -2 13 1 0.41 0.11
 -2 13 2 0.03 0.11
 -2 13 3 0.06 0.19
 -2 13 4 2.25 0.13
 -2 13 5 0.1 0.16
 -2 13 6 0.11 0.17
 -2 13 7 0.22 0.12
 -2 13 8 0.99 0.16
 -2 14 -1 1.77 0.13
 -2 14 0 0.19 0.14
 -2 14 1 0.56 0.12
 -2 14 2 1.66 0.11
 -2 14 3 1.26 0.12
 -2 14 4 1.12 0.1
 -2 14 5 0.06 0.16
 -2 14 6 0.14 0.14
 -2 15 -1 0.02 0.08
 -2 15 0 0.45 0.13
 -2 15 1 0.35 0.12
 -2 15 2 0.45 0.13
 -2 15 3 0.61 0.12
 -2 15 4 0.05 0.15
 -2 15 5 0.31 0.11
 -2 16 -1 0.48 0.11
 -2 16 0 0.14 0.17
 -2 16 1 0.3 0.14
 -2 16 2 0.19 0.14
 -1 0 1 671.72 4.49
 -1 0 3 7.21 0.2
 -1 0 5 113.21 0.84
 -1 0 7 2.13 0.15
 -1 0 9 2.92 0.19
 -1 0 11 0.16 0.19
 -1 0 13 0.32 0.17
 -1 1 0 687.51 28.78
 -1 1 1 326.26 6.17
 -1 1 2 314.4 6.64
 -1 1 3 15.98 0.27
 -1 1 4 67.63 0.57
 -1 1 5 23.72 0.3
 -1 1 6 60.69 0.91
 -1 1 7 42.1 3.39
 -1 1 8 7.84 0.15
 -1 1 9 0.58 0.13
 -1 1 10 0.66 0.11
 -1 1 11 1.5 0.12
 -1 1 12 0.73 0.12
 -1 1 13 0.05 0.16
 -1 2 0 78.74 5.67
 -1 2 1 3.28 0.09
 -1 2 2 49.57 1.45
 -1 2 3 2.84 0.2
 -1 2 4 85.46 4.36
 -1 2 5 9.53 0.15
 -1 2 6 19.02 0.43
 -1 2 7 4.12 0.42
 -1 2 8 2.61 0.21
 -1 2 9 8.3 0.62
 -1 2 10 1.14 0.18
 -1 2 11 0.75 0.11
 -1 2 12 0.15 0.17
 -1 3 0 312.05 5.76
 -1 3 1 231.13 4.38
 -1 3 2 74.01 2.32
 -1 3 3 189.61 3.53
 -1 3 4 36.51 0.39
 -1 3 5 49.83 0.82
 -1 3 6 27.41 1.09
 -1 3 7 6.05 0.56
 -1 3 8 8.71 0.37
 -1 3 9 0.19 0.11
 -1 3 10 0.45 0.11
 -1 3 11 0.17 0.14
 -1 3 12 0.2 0.13
 -1 4 0 0.4 0.06
 -1 4 1 4.83 0.09
 -1 4 2 45 1.38
 -1 4 3 6.73 0.11
 -1 4 4 14.93 0.34
 -1 4 5 5 0.09
 -1 4 6 0.1 0.15
 -1 4 7 2.95 0.49
 -1 4 8 19.12 2.56
 -1 4 9 4.51 0.33
 -1 4 10 6.37 0.18
 -1 4 11 0.26 0.13
 -1 4 12 0.13 0.15
 -1 5 0 2.81 0.12
 -1 5 1 0.09 0.09
 -1 5 2 105.42 3.36
 -1 5 3 73.01 1.46
 -1 5 4 53.85 0.51
 -1 5 5 0.15 0.1
 -1 5 6 0.29 0.09
 -1 5 7 11.93 0.74
 -1 5 8 2.35 1.74
 -1 5 9 0.25 0.14
 -1 5 10 0.1 0.16
 -1 5 11 0.23 0.15
 -1 5 12 0.09 0.18
 -1 6 0 43.45 2.3
 -1 6 1 37.26 1.26
 -1 6 2 14.81 0.39
 -1 6 3 0.96 0.66
 -1 6 4 0.49 0.09
 -1 6 5 11.85 0.23
 -1 6 6 10.32 0.65
 -1 6 7 4.12 0.14
 -1 6 8 6.8 0.22
 -1 6 9 10.07 0.28
 -1 6 10 1.5 0.13
 -1 6 11 0.46 0.13
 -1 6 12 0.32 0.14
 -1 7 0 4.44 0.24
 -1 7 1 0.12 0.12
 -1 7 2 9.07 0.27
 -1 7 3 26.47 0.59
 -1 7 4 1.76 0.1
 -1 7 5 0.12 0.14
 -1 7 6 2.91 0.1
 -1 7 7 6.32 0.26
 -1 7 8 0.96 0.09
 -1 7 9 0 0.04
 -1 7 10 0.07 0.19
 -1 7 11 0.88 0.19
 -1 8 0 3.39 0.34
 -1 8 1 62.01 3.29
 -1 8 2 7.12 0.26
 -1 8 3 2.15 0.09
 -1 8 4 5.53 0.13
 -1 8 5 15.44 0.53
 -1 8 6 0.99 0.1
 -1 8 7 7.95 0.23
 -1 8 8 2.66 0.27
 -1 8 9 1.15 0.22
 -1 8 10 0.48 0.12
 -1 8 11 0.66 0.12
 -1 9 0 24.82 1.11
 -1 9 1 0.92 0.15
 -1 9 2 0.19 0.11
 -1 9 3 3.35 0.1
 -1 9 4 0.17 0.17
 -1 9 5 3.16 0.14
 -1 9 6 7.4 0.3
 -1 9 7 0.47 0.09
 -1 9 8 1.41 0.1
 -1 9 9 0.01 0.08
 -1 9 10 1.01 0.12
 -1 9 11 0.19 0.19
 -1 10 0 27.19 1.71
 -1 10 1 3.51 0.1
 -1 10 2 14.28 0.55
 -1 10 3 0.24 0.15
 -1 10 4 4.67 0.15
 -1 10 5 1.86 0.23
 -1 10 6 7.4 0.4
 -1 10 7 0.2 0.14
 -1 10 8 0.23 0.11
 -1 10 9 0.04 0.12
 -1 10 10 0.18 0.13
 -1 11 0 0.22 0.13
 -1 11 1 2.68 0.11
 -1 11 2 12.81 0.4
 -1 11 3 0.05 0.18
 -1 11 4 12.17 0.75
 -1 11 5 1.9 0.11
 -1 11 6 0.87 0.09
 -1 11 7 2.05 0.1
 -1 11 8 0.02 0.07
 -1 11 9 0.22 0.12
 -1 12 0 0.35 0.09
 -1 12 1 7.18 0.12
 -1 12 2 0.02 0.09
 -1 12 3 0.08 0.19
 -1 12 4 0.08 0.15
 -1 12 5 2.96 0.12
 -1 12 6 0.11 0.17
 -1 12 7 0.1 0.16
 -1 12 8 0.19 0.12
 -1 12 9 0.41 0.1
 -1 13 0 0.43 0.09
 -1 13 1 3.44 0.22
 -1 13 2 0.06 0.13
 -1 13 3 13.9 0.7
 -1 13 4 0.11 0.18
 -1 13 5 2.95 0.13
 -1 13 6 0.41 0.13
 -1 13 7 0.11 0.16
 -1 13 8 0.09 0.15
 -1 14 0 0.2 0.13
 -1 14 1 0.63 0.09
 -1 14 2 0.36 0.1
 -1 14 3 0.32 0.13
 -1 14 4 0.35 0.13
 -1 14 5 0.2 0.16
 -1 14 6 0.15 0.17
 -1 14 7 0.1 0.16
 -1 15 0 0.13 0.16
 -1 15 1 0.11 0.17
 -1 15 2 4.13 0.11
 -1 15 3 0.04 0.16
 -1 15 4 3.03 0.14
 -1 15 5 0.06 0.18
 -1 16 0 0.68 0.1
 -1 16 1 0.07 0.16
 -1 16 2 0.6 0.11
 -1 16 3 0.18 0.13
 0 0 2 936.92 6.07
 0 0 4 16.15 0.45
 0 0 6 1.94 0.14
 0 0 8 1.52 0.16
 0 0 10 3.68 0.17
 0 0 12 3.32 0.19
 0 1 1 48.24 1.52
 0 1 2 424.53 10.62
 0 1 3 6.03 0.3
 0 1 4 1.47 0.07
 0 1 5 32.08 0.47
 0 1 6 19.65 0.31
 0 1 7 6.42 0.39
 0 1 8 0.89 0.12
 0 1 9 0.8 0.27
 0 1 10 3.73 0.12
 0 1 11 0.6 0.22
 0 1 12 0.17 0.17
 0 2 0 2.12 0.06
 0 2 1 1952.95 88.65
 0 2 2 40.35 1.83
 0 2 3 0.06 0.08
 0 2 4 56.58 1.61
 0 2 5 2.79 0.1
 0 2 6 0.05 0.15
 0 2 7 4.29 0.4
 0 2 8 7.13 0.92
 0 2 9 0.2 0.11
 0 2 10 0.93 0.12
 0 2 11 3.42 0.23
 0 2 12 0.05 0.16
 0 3 1 308.91 5.12
 0 3 2 11.23 0.47
 0 3 3 250.44 12.56
 0 3 4 6.17 0.45
 0 3 5 0.11 0.1
 0 3 6 2.15 0.19
 0 3 7 0.53 0.11
 0 3 8 0.28 0.18
 0 3 9 9.52 0.63
 0 3 10 0.16 0.13
 0 3 11 1.39 0.12
 0 3 12 0.19 0.16
 0 4 0 323.6 1.75
 0 4 1 17.75 0.49
 0 4 2 25.6 1.14
 0 4 3 75.1 3.68
 0 4 4 0.57 0.18
 0 4 5 14.75 0.91
 0 4 6 2.17 0.15
 0 4 7 12.42 1.34
 0 4 8 1 0.48
 0 4 9 6.87 0.37
 0 4 10 0.26 0.12
 0 4 11 0.07 0.14
 0 4 12 0.31 0.14
 0 5 1 32.48 0.9
 0 5 2 231.98 4.84
 0 5 3 14.76 0.91
 0 5 4 49.46 1.72
 0 5 5 4.83 0.37
 0 5 6 4.53 0.16
 0 5 7 2.64 0.15
 0 5 8 10.75 1.06
 0 5 9 0.03 0.13
 0 5 10 4.23 0.15
 0 5 11 0.12 0.17
 0 5 12 0.11 0.16
 0 6 0 43.66 0.81
 0 6 1 0.16 0.07
 0 6 2 3.3 0.11
 0 6 3 1.19 0.09
 0 6 4 37.31 1.27
 0 6 5 3.95 0.24
 0 6 6 0.88 0.11
 0 6 7 1.28 0.13
 0 6 8 9.45 0.36
 0 6 9 0.02 0.08
 0 6 10 0.35 0.19
 0 6 11 0.27 0.18
 0 6 12 0.07 0.2
 0 7 1 23.27 0.46
 0 7 2 26.15 0.67
 0 7 3 43.47 1.64
 0 7 4 4.81 0.45
 0 7 5 13.29 0.59
 0 7 6 23.01 1.31
 0 7 7 8.56 0.5
 0 7 8 1.23 0.14
 0 7 9 4.03 0.16
 0 7 10 0.18 0.15
 0 7 11 0.27 0.12
 0 8 0 25.85 0.52
 0 8 1 22.34 0.33
 0 8 2 1.17 0.08
 0 8 3 2.32 0.09
 0 8 4 7.64 0.44
 0 8 5 0.84 0.12
 0 8 6 1.61 0.13
 0 8 7 2.71 0.24
 0 8 8 0.03 0.13
 0 8 9 0.21 0.13
 0 8 10 0.4 0.28
 0 8 11 0.5 0.12
 0 9 1 5.5 0.12
 0 9 2 1.53 0.09
 0 9 3 0.12 0.15
 0 9 4 4.25 0.17
 0 9 5 22.43 1.35
 0 9 6 5.14 0.13
 0 9 7 8.21 0.16
 0 9 8 1.92 0.12
 0 9 9 0.03 0.11
 0 9 10 0.07 0.2
 0 10 0 26.08 0.6
 0 10 1 6.48 0.31
 0 10 2 8.01 0.22
 0 10 3 5.76 0.29
 0 10 4 0.28 0.11
 0 10 5 4.67 0.13
 0 10 6 0.22 0.15
 0 10 7 0.04 0.15
 0 10 8 0.08 0.18
 0 10 9 0.04 0.16
 0 10 10 0.67 0.13
 0 11 1 1.3 0.13
 0 11 2 0.87 0.11
 0 11 3 1.04 0.11
 0 11 4 3.98 0.1
 0 11 5 0.88 0.11
 0 11 6 6.64 0.33
 0 11 7 0.94 0.11
 0 11 8 0.22 0.15
 0 11 9 0.19 0.13
 0 12 0 1.38 0.17
 0 12 1 5.96 0.23
 0 12 2 1 0.08
 0 12 3 3.35 0.1
 0 12 4 6.01 0.11
 0 12 5 0.62 0.09
 0 12 6 0.14 0.19
 0 12 7 0.25 0.13
 0 12 8 0.67 0.13
 0 13 1 0.04 0.14
 0 13 2 3.95 0.1
 0 13 3 0.1 0.15
 0 13 4 0.22 0.11
 0 13 5 0.68 0.1
 0 13 6 0.34 0.13
 0 13 7 0.05 0.17
 0 13 8 0.04 0.15
 0 14 0 0.17 0.19
 0 14 1 0.62 0.24
 0 14 2 1.16 0.09
 0 14 3 2.93 0.1
 0 14 4 1.42 0.18
 0 14 5 0.46 0.11
 0 14 6 0.03 0.13
 0 14 7 0.31 0.12
 0 15 1 0.87 0.18
 0 15 2 0.2 0.13
 0 15 3 1.03 0.1
 0 15 4 0.16 0.13
 0 15 5 0.1 0.14
 0 16 0 0.4 0.19
 0 16 1 0.16 0.17
 0 16 2 0.76 0.13
 0 16 3 0.4 0.18
 1 0 1 0.19 0.06
 1 0 3 193.66 1.36
 1 0 5 0.72 0.12
 1 0 7 5.71 0.19
 1 0 9 2.18 0.16
 1 0 11 3.25 0.18
 1 1 1 748.21 28.34
 1 1 2 57.56 3.84
 1 1 3 0.03 0.09
 1 1 4 38.47 0.71
 1 1 5 62.12 0.93
 1 1 6 31.25 1
 1 1 7 3.88 0.13
 1 1 8 4.31 0.37
 1 1 9 0.08 0.2
 1 1 10 1.17 0.15
 1 1 11 0.47 0.12
 1 1 12 0.55 0.13
 1 2 1 182.55 6.23
 1 2 2 234.56 8.4
 1 2 3 235.75 10.14
 1 2 4 51.33 1.67
 1 2 5 12.5 0.21
 1 2 6 2.87 0.34
 1 2 7 1.1 0.14
 1 2 8 0.01 0.09
 1 2 9 0.07 0.19
 1 2 10 2.72 0.13
 1 2 11 0.26 0.21
 1 2 12 0.43 0.12
 1 3 1 2.88 0.14
 1 3 2 140.01 0.8
 1 3 3 5.97 0.15
 1 3 4 27.59 0.96
 1 3 5 9.34 0.35
 1 3 6 6.74 0.58
 1 3 7 9.86 0.68
 1 3 8 2.97 0.48
 1 3 9 4.18 0.29
 1 3 10 0.35 0.17
 1 3 11 0.76 0.12
 1 3 12 0.45 0.12
 1 4 1 54.03 1.13
 1 4 2 283.31 3.36
 1 4 3 110.37 2.72
 1 4 4 103.08 2.62
 1 4 5 8.61 0.62
 1 4 6 0.13 0.16
 1 4 7 0.04 0.12
 1 4 8 1.84 0.23
 1 4 9 0.65 0.11
 1 4 10 0.1 0.18
 1 4 11 0.41 0.27
 1 4 12 0.12 0.17
 1 5 1 111.72 1.37
 1 5 2 17.8 0.66
 1 5 3 1.07 0.09
 1 5 4 2.71 0.13
 1 5 5 5.2 0.34
 1 5 6 0.1 0.15
 1 5 7 2.66 0.45
 1 5 8 3.5 0.12
 1 5 9 3.13 0.1
 1 5 10 1.1 0.12
 1 5 11 0.08 0.19
 1 6 1 36.85 1.78
 1 6 2 52.95 2.12
 1 6 3 123.29 4.44
 1 6 4 24.34 2.01
 1 6 5 4.89 0.29
 1 6 6 7.46 0.58
 1 6 7 3.16 0.33
 1 6 8 0.96 0.11
 1 6 9 0.22 0.13
 1 6 10 0.27 0.17
 1 6 11 0.02 0.09
 1 7 1 43.35 2.32
 1 7 2 5.93 0.44
 1 7 3 0.39 0.1
 1 7 4 0.21 0.11
 1 7 5 15.09 0.43
 1 7 6 0.56 0.15
 1 7 7 0.25 0.15
 1 7 8 1.58 0.12
 1 7 9 0.68 0.16
 1 7 10 0.09 0.23
 1 7 11 0.1 0.17
 1 8 1 40.59 2.15
 1 8 2 19.69 1.61
 1 8 3 10.66 0.8
 1 8 4 7.21 0.36
 1 8 5 10.7 0.51
 1 8 6 1.2 0.13
 1 8 7 4.79 0.33
 1 8 8 0.18 0.13
 1 8 9 0.03 0.11
 1 8 10 0.39 0.12
 1 9 1 0.15 0.16
 1 9 2 6.88 0.44
 1 9 3 0.07 0.2
 1 9 4 12.26 0.43
 1 9 5 0.15 0.17
 1 9 6 6.78 0.14
 1 9 7 0.11 0.16
 1 9 8 0.1 0.17
 1 9 9 0.14 0.17
 1 9 10 0.01 0.05
 1 10 1 0.72 0.11
 1 10 2 1.44 0.19
 1 10 3 0.21 0.14
 1 10 4 0.83 0.13
 1 10 5 0.44 0.11
 1 10 6 4.81 0.2
 1 10 7 0.35 0.23
 1 10 8 0.7 0.19
 1 10 9 0.26 0.12
 1 11 1 7.81 0.53
 1 11 2 0.45 0.13
 1 11 3 0.58 0.1
 1 11 4 0.18 0.12
 1 11 5 5.45 0.14
 1 11 6 0.17 0.13
 1 11 7 0.37 0.12
 1 11 8 1.23 0.15
 1 11 9 0.1 0.17
 1 12 1 0.38 0.11
 1 12 2 1.53 0.11
 1 12 3 1.31 0.15
 1 12 4 1.04 0.1
 1 12 5 0.3 0.2
 1 12 6 0.08 0.17
 1 12 7 1.25 0.12
 1 12 8 0.15 0.18
 1 13 1 0.43 0.11
 1 13 2 0.14 0.17
 1 13 3 0.05 0.17
 1 13 4 0.52 0.12
 1 13 5 0.08 0.22
 1 13 6 0.2 0.16
 1 13 7 0.82 0.15
 1 14 1 0.09 0.18
 1 14 2 1.45 0.11
 1 14 3 0.96 0.12
 1 14 4 0.6 0.17
 1 14 5 0.11 0.18
 1 14 6 0.36 0.25
 1 15 1 0.22 0.11
 1 15 2 0.23 0.13
 1 15 3 0.06 0.18
 1 15 4 0.12 0.17
 1 15 5 0.09 0.18
 1 16 1 0.14 0.19
 1 16 2 0.08 0.21
 1 16 3 0.5 0.21
 2 0 2 12.13 0.28
 2 0 4 94.16 1.14
 2 0 6 92.51 1.37
 2 0 8 4.81 0.22
 2 0 10 0 0.11
 2 0 12 0.18 0.18
 2 1 2 32.28 2.56
 2 1 3 12.44 0.54
 2 1 4 70.99 2.71
 2 1 5 8.78 0.14
 2 1 6 0.68 0.1
 2 1 7 0.37 0.12
 2 1 8 1.52 0.13
 2 1 9 0.76 0.23
 2 1 10 0.15 0.14
 2 1 11 0.49 0.13
 2 1 12 0.24 0.19
 2 2 2 95.96 4.32
 2 2 3 2.16 0.08
 2 2 4 7.84 0.51
 2 2 5 83.76 4.51
 2 2 6 0.16 0.16
 2 2 7 19.88 1.65
 2 2 8 0.54 0.14
 2 2 9 1.55 1.03
 2 2 10 0.27 0.17
 2 2 11 0.14 0.2
 2 3 2 1.64 0.08
 2 3 3 126.72 7.14
 2 3 4 0.11 0.15
 2 3 5 15.26 0.88
 2 3 6 2.01 0.11
 2 3 7 6.65 0.23
 2 3 8 1.94 0.11
 2 3 9 2.12 0.57
 2 3 10 0.6 0.12
 2 3 11 0.1 0.19
 2 4 2 4.72 0.17
 2 4 3 48.33 0.62
 2 4 4 8.88 0.33
 2 4 5 0.13 0.15
 2 4 6 11.14 0.86
 2 4 7 0.14 0.17
 2 4 8 0.6 0.11
 2 4 9 0.86 0.14
 2 4 10 0.02 0.11
 2 4 11 0.12 0.18
 2 5 2 53.25 2.52
 2 5 3 5.44 0.11
 2 5 4 36.35 1.92
 2 5 5 4.76 3.45
 2 5 6 1.2 0.12
 2 5 7 2.26 0.45
 2 5 8 7.02 0.25
 2 5 9 0.56 0.09
 2 5 10 0.7 0.1
 2 5 11 0.11 0.16
 2 6 2 53.45 0.66
 2 6 3 0.09 0.15
 2 6 4 0.63 0.1
 2 6 5 0.03 0.13
 2 6 6 3.21 0.27
 2 6 7 0.18 0.15
 2 6 8 0.18 0.15
 2 6 9 0.2 0.14
 2 6 10 0.32 0.13
 2 6 11 0.19 0.17
 2 7 2 1.95 0.19
 2 7 3 22.27 0.78
 2 7 4 7.17 0.15
 2 7 5 0.79 0.2
 2 7 6 0.13 0.19
 2 7 7 2.84 0.2
 2 7 8 0.46 0.11
 2 7 9 1.55 0.16
 2 7 10 0.22 0.14
 2 8 2 1.18 0.23
 2 8 3 0.56 0.11
 2 8 4 1.3 0.12
 2 8 5 6.19 0.31
 2 8 6 2.83 0.12
 2 8 7 1.53 0.11
 2 8 8 0.13 0.19
 2 8 9 0.19 0.18
 2 8 10 0.41 0.13
 2 9 2 5.97 0.14
 2 9 3 1.19 0.12
 2 9 4 0.52 0.12
 2 9 5 2.03 0.11
 2 9 6 0.11 0.16
 2 9 7 0.13 0.18
 2 9 8 0.24 0.16
 2 9 9 0.09 0.19
 2 10 2 0.86 0.12
 2 10 3 1.01 0.13
 2 10 4 4.93 0.13
 2 10 5 1.9 0.12
 2 10 6 3.58 0.13
 2 10 7 0.3 0.13
 2 10 8 0.29 0.14
 2 10 9 0.44 0.13
 2 11 2 0.75 0.1
 2 11 3 0.17 0.13
 2 11 4 1.46 0.16
 2 11 5 0.1 0.17
 2 11 6 0.18 0.18
 2 11 7 0.38 0.13
 2 11 8 0.02 0.11
 2 12 2 5.14 0.13
 2 12 3 4 0.13
 2 12 4 0.24 0.12
 2 12 5 2.06 0.2
 2 12 6 0.21 0.18
 2 12 7 0.36 0.13
 2 12 8 0.28 0.17
 2 13 2 0.1 0.16
 2 13 3 0.15 0.16
 2 13 4 0.75 0.12
 2 13 5 0.04 0.16
 2 13 6 0.26 0.13
 2 13 7 0.04 0.14
 2 14 2 2.2 0.13
 2 14 3 1.83 0.13
 2 14 4 0.71 0.13
 2 14 5 0.04 0.15
 2 15 2 0.16 0.15
 2 15 3 0.45 0.11
 2 15 4 0.05 0.17
 3 0 3 13.17 0.37
 3 0 5 32.79 0.87
 3 0 7 0.29 0.2
 3 0 9 0.42 0.18
 3 0 11 0.05 0.2
 3 1 3 0.44 0.09
 3 1 4 13.77 0.65
 3 1 5 9.72 0.29
 3 1 6 7.53 0.15
 3 1 7 5.94 0.16
 3 1 8 0.1 0.19
 3 1 9 0.09 0.16
 3 1 10 0.69 0.12
 3 1 11 0.44 0.23
 3 2 3 1.3 0.26
 3 2 4 20.84 0.56
 3 2 5 0.05 0.17
 3 2 6 3.6 0.19
 3 2 7 2.9 0.14
 3 2 8 0.84 0.11
 3 2 9 1.61 0.14
 3 2 10 0.3 0.23
 3 2 11 0.01 0.05
 3 3 3 28.43 1.51
 3 3 4 0.81 0.17
 3 3 5 6.34 0.26
 3 3 6 10.01 0.64
 3 3 7 0.08 0.14
 3 3 8 1.76 0.21
 3 3 9 0.31 0.12
 3 3 10 0.04 0.16
 3 3 11 0.19 0.15
 3 4 3 0.16 0.14
 3 4 4 0.17 0.12
 3 4 5 0.26 0.11
 3 4 6 1.5 0.18
 3 4 7 1.43 0.12
 3 4 8 5.28 0.17
 3 4 9 0.93 0.12
 3 4 10 0.66 0.13
 3 4 11 0.02 0.09
 3 5 3 11.87 0.31
 3 5 4 8.22 0.73
 3 5 5 1.2 0.12
 3 5 6 0.15 0.18
 3 5 7 4.33 0.2
 3 5 8 0.2 0.17
 3 5 9 0.33 0.13
 3 5 10 0.05 0.17
 3 6 3 0.18 0.12
 3 6 4 4.22 0.3
 3 6 5 0.72 0.13
 3 6 6 4.95 0.26
 3 6 7 2.12 0.14
 3 6 8 1.74 0.24
 3 6 9 1.82 0.13
 3 6 10 0.21 0.15
 3 7 3 6.42 0.3
 3 7 4 0.14 0.19
 3 7 5 0.39 0.12
 3 7 6 1.7 0.11
 3 7 7 0.96 0.15
 3 7 8 0.71 0.21
 3 7 9 0.13 0.2
 3 7 10 0.21 0.17
 3 8 3 2.53 0.13
 3 8 4 2.11 0.13
 3 8 5 9.62 0.23
 3 8 6 0.22 0.11
 3 8 7 2.64 0.23
 3 8 8 0.54 0.18
 3 8 9 0.47 0.16
 3 9 3 1.74 0.14
 3 9 4 0.19 0.16
 3 9 5 0.8 0.11
 3 9 6 1.48 0.12
 3 9 7 0.16 0.15
 3 9 8 0.05 0.16
 3 9 9 0.23 0.13
 3 10 3 0.77 0.11
 3 10 4 4.98 0.13
 3 10 5 1.28 0.12
 3 10 6 2.73 0.23
 3 10 7 0.2 0.15
 3 10 8 0.08 0.22
 3 11 3 0.04 0.13
 3 11 4 3.11 0.25
 3 11 5 0.35 0.12
 3 11 6 0.12 0.2
 3 11 7 0.19 0.14
 3 12 3 0.21 0.13
 3 12 4 0.32 0.12
 3 12 5 1.04 0.12
 3 12 6 0.23 0.16
 3 12 7 0.02 0.08
 3 13 3 5.27 0.15
 3 13 4 0.05 0.17
 3 13 5 0.21 0.15
 3 13 6 0.12 0.18
 3 14 3 0.07 0.21
 3 14 4 0.15 0.14
 3 15 3 0.06 0.19
 4 0 4 4.33 0.18
 4 0 6 0.64 0.19
 4 0 8 0.16 0.19
 4 0 10 0.81 0.18
 4 1 4 0.05 0.17
 4 1 5 3.13 0.31
 4 1 6 1 0.13
 4 1 7 0.14 0.18
 4 1 8 0.47 0.11
 4 1 9 0.43 0.12
 4 1 10 0.55 0.13
 4 2 4 0.95 0.11
 4 2 5 1.47 0.12
 4 2 6 1.19 0.24
 4 2 7 0.12 0.18
 4 2 8 1.53 0.12
 4 2 9 0.27 0.14
 4 2 10 0.44 0.32
 4 3 4 1.57 0.31
 4 3 5 0.04 0.17
 4 3 6 0.07 0.19
 4 3 7 0.16 0.16
 4 3 8 0.11 0.18
 4 3 9 0.94 0.12
 4 3 10 0.06 0.2
 4 4 4 0.12 0.19
 4 4 5 0.11 0.17
 4 4 6 0.22 0.15
 4 4 7 3.97 0.13
 4 4 8 0.03 0.11
 4 4 9 0.87 0.12
 4 4 10 0.08 0.23
 4 5 4 8.95 0.75
 4 5 5 1.23 0.37
 4 5 6 0.68 0.12
 4 5 7 0.42 0.11
 4 5 8 0.71 0.12
 4 5 9 0.11 0.19
 4 6 4 1.85 0.13
 4 6 5 0.72 0.13
 4 6 6 1.27 0.11
 4 6 7 0.32 0.12
 4 6 8 1.79 0.13
 4 6 9 0.12 0.2
 4 7 4 2.25 0.11
 4 7 5 2.48 0.23
 4 7 6 3.01 0.34
 4 7 7 0.74 0.12
 4 7 8 0.08 0.23
 4 7 9 0.11 0.22
 4 8 4 2.61 0.12
 4 8 5 0.13 0.14
 4 8 6 0.36 0.13
 4 8 7 0.38 0.13
 4 8 8 0.03 0.13
 4 9 4 1.55 0.18
 4 9 5 4.4 0.14
 4 9 6 0.8 0.19
 4 9 7 0.68 0.13
 4 9 8 0.1 0.21
 4 10 4 0.08 0.21
 4 10 5 0.78 0.25
 4 10 6 0.07 0.21
 4 10 7 0.05 0.18
 4 11 4 1.2 0.15
 4 11 5 0.38 0.25
 4 11 6 1.04 0.25
 4 12 4 0.78 0.12
 4 12 5 0.13 0.18
 4 13 4 0.11 0.2
 5 0 5 0.19 0.17
 5 0 7 0.11 0.22
 5 0 9 0.4 0.19
 5 1 5 3.73 0.21
 5 1 6 2.65 0.24
 5 1 7 0.21 0.13
 5 1 8 0.35 0.13
 5 1 9 0.11 0.18
 5 2 5 0.09 0.21
 5 2 6 0.17 0.16
 5 2 7 0.25 0.13
 5 2 8 0.12 0.2
 5 2 9 0.22 0.16
 5 3 5 2.26 0.19
 5 3 6 0.28 0.14
 5 3 7 0.97 0.17
 5 3 8 0.2 0.15
 5 3 9 0.32 0.14
 5 4 5 0.56 0.11
 5 4 6 0.44 0.12
 5 4 7 0.2 0.14
 5 4 8 0.18 0.2
 5 4 9 0.08 0.22
 5 5 5 0.05 0.15
 5 5 6 0.07 0.2
 5 5 7 0.39 0.13
 5 5 8 0.36 0.13
 5 6 5 0.15 0.15
 5 6 6 0.29 0.13
 5 6 7 0.47 0.17
 5 6 8 0.18 0.2
 5 7 5 0.91 0.19
 5 7 6 0.07 0.2
 5 7 7 0.09 0.19
 5 7 8 0.28 0.14
 5 8 5 0.56 0.12
 5 8 6 0.19 0.19
 5 8 7 0.16 0.2
 5 9 5 0.04 0.15
 5 9 6 0.67 0.13
 5 9 7 0.06 0.15
 5 10 5 0.17 0.2
 5 10 6 0.38 0.16
 5 11 5 0.69 0.16
 6 0 6 2.29 0.18
 6 0 8 0.05 0.21
 6 1 6 0.22 0.13
 6 1 7 0.17 0.15
 6 1 8 0.05 0.17
 6 2 6 0.01 0.05
 6 2 7 0.49 0.13
 6 2 8 0.22 0.15
 6 3 6 0.41 0.13
 6 3 7 0.36 0.13
 6 4 6 0.51 0.13
 6 4 7 0.04 0.13
 6 5 6 0.28 0.14
 6 5 7 0.09 0.24
 6 6 6 0.17 0.2
 6 6 7 0.26 0.17
 6 7 6 0.03 0.13
 6 8 6 0.17 0.17

_iucr_refine_fcf_details
;
data_epoxide
_computing_structure_refinement   'olex2.refine 1.5 (Bourhis et al., 2015)'
_shelx_refln_list_code            4
loop_
  _space_group_symop_id
  _space_group_symop_operation_xyz
  1  x,y,z
  2  -x+1/2,y+1/2,-z+1/2
  3  -x,-y,-z
  4  x-1/2,-y-1/2,z-1/2

_space_group_crystal_system       monoclinic
_space_group_IT_number            14
_space_group_name_H-M_alt         'P 1 21/n 1'
_space_group_name_Hall            '-P 2ybc (x-z,y,z)'
_symmetry_space_group_name_H-M    'P 1 21/n 1'
_symmetry_space_group_name_Hall   '-P 2ybc (x-z,y,z)'
_symmetry_Int_Tables_number       14
_cell_length_a                    4.633(5)
_cell_length_b                    8.400(1)
_cell_length_c                    6.577(3)
_cell_angle_alpha                 90
_cell_angle_beta                  100.37(6)
_cell_angle_gamma                 90
_cell_volume                      251.8(3)
loop_
  _refln_index_h
  _refln_index_k
  _refln_index_l
  _refln_F_squared_calc
  _refln_F_squared_meas
  _refln_F_squared_sigma
  _refln_F_squared_weight
  _refln_observed_status
-9 0 1 0.536 0.155 0.237 68.569 o
-9 0 3 0.261 0.031 0.176 138.465 o
-9 0 5 0.119 0.258 0.207 114.491 o
-9 1 0 0.007 0.083 0.196 160.141 o
-9 1 1 0.101 0.072 0.217 119.882 o
-9 1 2 0.006 0.031 0.145 298.512 o
-9 1 3 0.040 0.196 0.165 185.998 o
-9 1 4 0.054 0.207 0.196 138.037 o
-9 2 0 0.011 0.093 0.237 110.640 o
-9 2 1 0.017 0.041 0.155 252.770 o
-9 2 2 0.301 0.134 0.207 100.724 o
-9 2 3 0.071 0.176 0.207 126.849 o
-9 2 4 0.007 0.093 0.207 144.407 o
-9 3 1 0.001 0.072 0.227 122.980 o
-9 3 2 0.000 0.010 0.072 1194.090 o
-9 3 3 0.113 0.062 0.207 129.008 o
-8 0 -4 0.673 0.124 0.258 57.191 o
-8 0 -2 0.014 0.072 0.268 88.190 o
-8 0 0 3.700 2.034 0.186 11.622 o
-8 0 2 3.940 3.521 0.207 8.767 o
-8 0 4 0.420 0.444 0.176 90.621 o
-8 0 6 0.628 0.661 0.186 65.480 o
-8 0 8 1.021 1.342 0.207 37.880 o
-8 1 -4 0.005 0.176 0.207 137.351 o
-8 1 -3 0.014 0.134 0.207 139.435 o
-8 1 -2 0.533 0.165 0.186 88.456 o
-8 1 -1 0.005 0.134 0.196 154.706 o
-8 1 0 0.082 0.021 0.114 360.124 o
-8 1 1 0.525 0.207 0.145 106.572 o
-8 1 2 1.037 0.589 0.186 49.822 o
-8 1 3 0.644 0.485 0.361 34.566 o
-8 1 4 0.254 0.454 0.217 85.143 o
-8 1 5 0.027 0.145 0.207 136.348 o
-8 1 6 0.307 0.145 0.176 121.191 o
-8 1 7 0.266 0.134 0.207 104.418 o
-8 1 8 0.011 0.052 0.196 162.795 o
-8 2 -4 0.000 0.207 0.207 135.572 o
-8 2 -3 0.290 0.186 0.165 129.014 o
-8 2 -2 0.001 0.062 0.207 148.617 o
-8 2 -1 0.688 0.454 0.134 81.626 o
-8 2 0 0.098 0.021 0.103 386.273 o
-8 2 1 3.681 2.612 0.712 6.077 o
-8 2 2 0.060 0.114 0.207 133.435 o
-8 2 3 0.973 1.084 0.351 27.762 o
-8 2 4 1.040 0.650 0.124 56.727 o
-8 2 5 0.153 0.361 0.217 97.629 o
-8 2 6 0.288 0.227 0.145 143.339 o
-8 2 7 0.707 1.002 0.134 62.772 o
-8 2 8 0.027 0.010 0.052 1463.710 o
-8 3 -3 0.622 0.382 0.248 56.818 o
-8 3 -2 0.179 0.155 0.217 105.512 o
-8 3 -1 2.033 0.940 0.145 27.584 o
-8 3 0 0.288 0.341 0.134 140.265 o
-8 3 1 0.004 0.062 0.207 148.014 o
-8 3 2 0.127 0.165 0.196 129.212 o
-8 3 3 0.739 0.867 0.341 32.998 o
-8 3 4 0.012 0.248 0.186 155.144 o
-8 3 5 0.001 0.041 0.176 206.294 o
-8 3 6 0.013 0.145 0.176 184.511 o
-8 3 7 0.022 0.052 0.186 176.990 o
-8 3 8 0.052 0.124 0.227 113.300 o
-8 4 -3 0.053 0.093 0.237 106.211 o
-8 4 -2 0.029 0.072 0.217 130.092 o
-8 4 -1 0.089 0.103 0.217 119.293 o
-8 4 0 0.773 0.671 0.207 54.450 o
-8 4 1 0.159 0.093 0.196 129.899 o
-8 4 2 0.596 0.671 0.124 82.980 o
-8 4 3 0.877 0.289 0.134 73.746 o
-8 4 4 0.030 0.103 0.207 139.297 o
-8 4 5 1.534 1.167 0.237 28.506 o
-8 4 6 0.056 0.258 0.145 206.287 o
-8 4 7 0.004 0.041 0.165 230.085 o
-8 5 -3 0.018 0.114 0.196 154.297 o
-8 5 -2 1.843 0.764 0.196 29.284 o
-8 5 -1 0.234 0.103 0.165 147.409 o
-8 5 0 1.222 0.661 0.330 29.054 o
-8 5 1 0.004 0.165 0.207 138.533 o
-8 5 2 0.045 0.103 0.248 98.518 o
-8 5 3 0.115 0.072 0.217 117.972 o
-8 5 4 0.146 0.372 0.134 171.224 o
-8 5 5 0.048 0.062 0.207 139.878 o
-8 5 6 0.001 0.165 0.207 138.998 o
-8 5 7 0.087 0.227 0.196 130.589 o
-8 6 -2 0.006 0.186 0.165 199.609 o
-8 6 -1 0.062 0.021 0.124 337.166 o
-8 6 0 0.447 0.248 0.186 92.424 o
-8 6 1 0.007 0.165 0.217 126.490 o
-8 6 2 0.013 0.227 0.196 143.694 o
-8 6 3 0.001 0.248 0.196 144.055 o
-8 6 4 0.873 0.609 0.145 62.601 o
-8 6 5 0.000 0.237 0.155 212.943 o
-8 6 6 0.169 0.103 0.217 109.536 o
-8 7 -1 0.880 0.485 0.134 67.460 o
-8 7 0 0.003 0.062 0.207 148.298 o
-8 7 1 0.193 0.227 0.196 115.201 o
-8 7 2 0.552 0.630 0.134 85.650 o
-8 7 3 0.017 0.207 0.155 212.481 o
-8 7 4 0.032 0.103 0.186 167.422 o
-8 7 5 0.040 0.072 0.227 117.889 o
-8 8 1 0.413 0.289 0.145 116.065 o
-8 8 2 0.055 0.134 0.207 132.473 o
-8 8 3 0.001 0.134 0.207 141.683 o
-7 0 -5 1.367 0.589 0.186 40.471 o
-7 0 -3 1.405 0.620 0.165 40.980 o
-7 0 -1 0.359 0.124 0.217 89.939 o
-7 0 1 0.001 0.093 0.268 88.411 o
-7 0 3 3.415 4.502 0.196 8.894 o
-7 0 5 0.104 0.940 0.176 97.189 o
-7 0 7 1.591 0.650 0.196 34.281 o
-7 0 9 0.069 0.124 0.248 95.535 o
-7 1 -6 0.081 0.052 0.186 161.817 o
-7 1 -5 0.338 0.237 0.258 69.175 o
-7 1 -4 0.133 0.176 0.186 138.008 o
-7 1 -3 0.030 0.103 0.165 205.885 o
-7 1 -2 0.691 0.568 0.124 79.519 o
-7 1 -1 0.667 0.527 0.124 83.130 o
-7 1 0 5.922 4.047 0.919 3.235 o
-7 1 1 7.803 5.772 1.136 2.036 o
-7 1 2 7.460 5.999 0.950 2.370 o
-7 1 3 2.181 2.168 0.227 18.058 o
-7 1 4 0.632 0.568 0.165 73.153 o
-7 1 5 0.752 0.702 0.124 70.558 o
-7 1 6 0.207 0.227 0.124 187.960 o
-7 1 7 0.235 0.537 0.124 138.982 o
-7 1 8 0.089 0.093 0.207 130.303 o
-7 1 9 0.063 0.010 0.072 716.737 o
-7 1 10 0.113 0.207 0.176 150.555 o
-7 2 -6 0.069 0.165 0.165 181.947 o
-7 2 -5 0.026 0.320 0.248 91.049 o
-7 2 -4 1.132 0.444 0.186 49.097 o
-7 2 -3 0.231 0.083 0.186 129.136 o
-7 2 -2 0.006 0.052 0.176 202.303 o
-7 2 -1 1.444 0.485 0.186 39.867 o
-7 2 0 0.403 0.031 0.114 168.262 o
-7 2 1 0.033 0.134 0.196 148.944 o
-7 2 2 1.292 1.693 0.237 28.219 o
-7 2 3 2.372 1.920 0.382 14.084 o
-7 2 4 2.204 3.469 0.227 14.307 o
-7 2 5 1.494 1.476 0.124 32.493 o
-7 2 6 0.142 0.072 0.207 123.956 o
-7 2 7 0.059 0.062 0.196 151.071 o
-7 2 8 0.355 0.103 0.176 117.357 o
-7 2 9 0.074 0.062 0.207 135.335 o
-7 2 10 0.109 0.279 0.165 155.661 o
-7 3 -6 0.764 0.217 0.155 79.099 o
-7 3 -5 0.022 0.031 0.134 327.297 o
-7 3 -4 0.003 0.114 0.217 130.872 o
-7 3 -3 0.755 0.434 0.145 74.748 o
-7 3 -2 0.497 0.176 0.134 118.063 o
-7 3 -1 2.581 1.848 0.124 18.224 o
-7 3 0 0.973 0.919 0.217 42.856 o
-7 3 1 3.163 2.685 0.485 8.998 o
-7 3 2 2.629 2.406 0.434 11.352 o
-7 3 3 1.899 1.239 0.124 28.017 o
-7 3 4 0.372 0.382 0.217 79.207 o
-7 3 5 0.335 0.423 0.196 89.649 o
-7 3 6 1.205 1.600 0.134 36.403 o
-7 3 7 0.057 0.103 0.176 177.598 o
-7 3 8 0.128 0.155 0.207 120.013 o
-7 3 9 0.322 0.289 0.196 97.052 o
-7 4 -6 0.112 0.114 0.310 62.355 o
-7 4 -5 0.000 0.134 0.207 141.951 o
-7 4 -4 0.012 0.062 0.196 161.408 o
-7 4 -3 0.000 0.041 0.165 232.004 o
-7 4 -2 1.461 0.589 0.196 37.451 o
-7 4 -1 0.183 0.207 0.155 158.899 o
-7 4 0 1.803 0.712 0.124 33.836 o
-7 4 1 0.101 0.434 0.124 188.775 o
-7 4 2 1.477 1.229 0.124 35.154 o
-7 4 3 2.222 2.819 0.207 16.201 o
-7 4 4 5.444 5.431 0.816 3.447 o
-7 4 5 1.117 1.518 0.196 35.037 o
-7 4 6 0.599 0.620 0.124 84.904 o
-7 4 7 0.061 0.103 0.207 134.075 o
-7 4 8 0.017 0.072 0.217 132.009 o
-7 4 9 0.078 0.392 0.134 189.661 o
-7 5 -5 0.335 0.052 0.186 115.916 o
-7 5 -4 0.193 0.103 0.186 133.775 o
-7 5 -3 0.258 0.041 0.155 161.025 o
-7 5 -2 1.306 0.795 0.258 33.118 o
-7 5 -1 0.196 0.134 0.186 130.577 o
-7 5 0 0.242 0.382 0.124 154.691 o
-7 5 1 0.490 0.403 0.134 103.623 o
-7 5 2 0.001 0.134 0.196 155.723 o
-7 5 3 0.000 0.062 0.186 181.942 o
-7 5 4 0.546 0.382 0.124 102.423 o
-7 5 5 1.168 1.538 0.134 37.862 o
-7 5 6 0.309 0.527 0.145 113.978 o
-7 5 7 0.028 0.258 0.145 218.181 o
-7 5 8 0.148 0.413 0.289 62.578 o
-7 5 9 0.402 0.351 0.134 119.204 o
-7 6 -5 0.012 0.103 0.258 93.980 o
-7 6 -4 0.502 0.207 0.165 99.001 o
-7 6 -3 0.045 0.010 0.093 572.058 o
-7 6 -2 0.192 0.114 0.186 133.054 o
-7 6 -1 1.695 0.609 0.165 34.741 o
-7 6 0 0.037 0.176 0.186 157.568 o
-7 6 1 0.039 0.134 0.186 162.012 o
-7 6 2 0.613 0.919 0.341 34.460 o
-7 6 3 3.314 3.480 0.145 10.778 o
-7 6 4 1.402 1.518 0.134 33.336 o
-7 6 5 1.452 1.673 0.134 31.130 o
-7 6 6 1.531 1.549 0.227 26.678 o
-7 6 7 0.006 0.176 0.165 201.467 o
-7 6 8 0.680 1.105 0.134 61.541 o
-7 7 -4 0.030 0.382 0.289 68.192 o
-7 7 -3 0.459 0.155 0.217 81.052 o
-7 7 -2 0.054 0.103 0.186 162.179 o
-7 7 -1 0.045 0.155 0.165 191.373 o
-7 7 0 0.000 0.114 0.217 131.318 o
-7 7 1 1.295 0.650 0.124 47.127 o
-7 7 2 0.014 0.134 0.186 168.248 o
-7 7 3 0.255 0.124 0.186 122.167 o
-7 7 4 0.159 0.248 0.186 127.434 o
-7 7 5 0.539 0.609 0.124 90.899 o
-7 7 6 0.116 0.217 0.186 137.237 o
-7 7 7 0.052 0.041 0.165 209.468 o
-7 7 8 0.039 0.207 0.196 140.726 o
-7 8 -3 0.567 0.547 0.134 87.949 o
-7 8 -2 0.057 0.186 0.165 182.267 o
-7 8 -1 0.031 0.041 0.134 314.307 o
-7 8 0 0.281 0.021 0.114 214.403 o
-7 8 1 0.269 0.361 0.134 142.056 o
-7 8 2 0.288 0.681 0.176 91.799 o
-7 8 3 0.158 0.237 0.217 103.369 o
-7 8 4 0.765 0.878 0.124 64.604 o
-7 8 5 0.942 0.836 0.124 56.973 o
-7 8 6 0.002 0.186 0.155 223.388 o
-7 8 7 1.531 1.920 0.134 28.080 o
-7 9 -2 0.087 0.145 0.217 116.872 o
-7 9 -1 0.102 0.155 0.217 114.418 o
-7 9 0 0.743 0.589 0.310 39.161 o
-7 9 1 0.016 0.145 0.176 183.709 o
-7 9 2 1.688 0.867 0.124 34.549 o
-7 9 3 0.008 0.062 0.207 147.267 o
-7 9 4 0.000 0.103 0.248 102.630 o
-7 9 5 0.014 0.031 0.114 453.102 o
-7 9 6 0.251 0.485 0.134 133.344 o
-7 10 -1 0.001 0.134 0.207 141.744 o
-7 10 0 0.330 0.165 0.207 96.412 o
-7 10 1 0.002 0.145 0.207 140.608 o
-7 10 2 0.010 0.196 0.207 134.880 o
-7 10 3 0.038 0.299 0.196 132.686 o
-7 10 4 0.004 0.021 0.124 409.266 o
-7 10 5 0.003 0.062 0.186 181.044 o
-6 0 -4 8.545 4.140 0.196 3.351 o
-6 0 -2 1.110 0.847 0.196 42.608 o
-6 0 0 2.805 2.375 0.217 14.203 o
-6 0 2 11.104 9.014 0.248 1.731 o
-6 0 4 0.388 0.589 0.186 83.006 o
-6 0 6 17.651 20.062 0.547 0.608 o
-6 0 8 5.812 7.888 0.217 3.827 o
-6 0 10 0.188 0.227 0.207 108.013 o
-6 1 -5 1.311 0.568 0.134 47.058 o
-6 1 -4 3.669 1.704 0.114 12.843 o
-6 1 -3 2.650 1.146 0.114 20.546 o
-6 1 -2 1.838 1.022 0.103 31.225 o
-6 1 -1 0.094 0.010 0.093 454.951 o
-6 1 0 1.972 0.702 0.186 28.416 o
-6 1 1 2.500 1.270 0.217 19.210 o
-6 1 2 0.000 0.248 0.227 112.134 o
-6 1 3 0.052 0.114 0.217 123.657 o
-6 1 4 6.321 9.530 0.506 2.828 o
-6 1 5 0.064 0.712 0.196 101.721 o
-6 1 6 0.584 1.239 0.145 61.294 o
-6 1 7 0.285 0.289 0.124 155.585 o
-6 1 8 0.843 0.847 0.124 61.352 o
-6 1 9 0.063 0.227 0.134 230.970 o
-6 1 10 0.006 0.041 0.155 259.022 o
-6 1 11 0.178 0.258 0.124 192.893 o
-6 2 -5 5.900 2.695 0.444 5.365 o
-6 2 -4 0.236 0.103 0.207 109.584 o
-6 2 -3 2.388 1.528 0.217 19.086 o
-6 2 -2 5.095 2.860 0.124 7.407 o
-6 2 -1 0.198 0.423 0.279 63.901 o
-6 2 0 2.291 2.137 0.268 16.555 o
-6 2 1 4.765 4.357 0.217 6.517 o
-6 2 2 0.669 0.403 0.134 85.323 o
-6 2 3 2.248 1.838 0.134 20.694 o
-6 2 4 0.333 0.289 0.145 128.782 o
-6 2 5 6.451 7.971 0.630 2.903 o
-6 2 6 0.062 0.196 0.124 265.072 o
-6 2 7 9.118 11.833 0.413 1.793 o
-6 2 8 0.248 0.207 0.155 144.115 o
-6 2 9 0.801 0.971 0.124 60.349 o
-6 2 10 0.635 0.681 0.155 71.956 o
-6 2 11 0.052 0.227 0.176 162.294 o
-6 3 -5 0.159 0.072 0.145 202.503 o
-6 3 -4 0.489 0.258 0.134 113.142 o
-6 3 -3 4.279 2.581 0.124 9.420 o
-6 3 -2 0.140 0.031 0.145 218.925 o
-6 3 -1 0.164 0.145 0.217 107.724 o
-6 3 0 0.016 0.114 0.186 170.352 o
-6 3 1 0.000 0.237 0.134 263.533 o
-6 3 2 0.520 0.093 0.196 87.966 o
-6 3 3 11.986 15.415 0.279 1.148 o
-6 3 4 1.012 0.475 0.196 51.108 o
-6 3 5 11.550 13.639 0.712 1.197 o
-6 3 6 0.219 0.165 0.176 133.882 o
-6 3 7 0.001 0.052 0.176 204.380 o
-6 3 8 0.008 0.093 0.176 194.433 o
-6 3 9 0.641 0.857 0.124 72.676 o
-6 3 10 0.063 0.145 0.217 120.084 o
-6 3 11 0.009 0.165 0.186 165.512 o
-6 4 -5 0.160 0.093 0.155 181.325 o
-6 4 -4 1.095 0.558 0.124 56.344 o
-6 4 -3 3.289 2.199 0.124 13.336 o
-6 4 -2 0.009 0.021 0.114 472.337 o
-6 4 -1 9.382 6.495 0.176 2.514 o
-6 4 0 0.041 0.258 0.186 147.721 o
-6 4 1 0.001 0.165 0.196 152.337 o
-6 4 2 0.894 1.043 0.134 53.432 o
-6 4 3 2.760 2.282 0.279 13.704 o
-6 4 4 0.107 0.702 0.114 157.336 o
-6 4 5 0.025 0.176 0.165 194.372 o
-6 4 6 2.397 3.924 0.496 9.167 o
-6 4 7 0.039 0.310 0.124 244.058 o
-6 4 8 0.708 1.094 0.114 63.384 o
-6 4 9 1.119 0.826 0.330 29.300 o
-6 4 10 0.020 0.134 0.196 151.637 o
-6 5 -5 0.001 0.072 0.217 134.535 o
-6 5 -4 0.754 0.485 0.114 80.135 o
-6 5 -3 0.153 0.103 0.186 140.892 o
-6 5 -2 2.032 1.208 0.124 26.452 o
-6 5 -1 0.610 0.237 0.124 103.358 o
-6 5 0 0.513 0.702 0.124 88.948 o
-6 5 1 1.569 1.621 0.124 30.060 o
-6 5 2 6.556 7.352 0.145 3.593 o
-6 5 3 0.275 0.165 0.165 133.404 o
-6 5 4 17.623 19.091 0.382 0.638 o
-6 5 5 0.766 0.547 0.114 76.918 o
-6 5 6 3.349 3.480 0.134 10.719 o
-6 5 7 0.170 0.186 0.145 178.897 o
-6 5 8 0.243 0.558 0.124 135.322 o
-6 5 9 0.235 0.650 0.186 93.377 o
-6 5 10 0.144 0.227 0.155 166.446 o
-6 6 -5 0.004 0.165 0.196 151.658 o
-6 6 -4 0.001 0.031 0.114 478.031 o
-6 6 -3 0.004 0.031 0.124 401.282 o
-6 6 -2 4.394 2.757 0.134 8.895 o
-6 6 -1 0.059 0.155 0.155 205.712 o
-6 6 0 1.360 1.260 0.124 37.277 o
-6 6 1 0.256 0.021 0.093 265.160 o
-6 6 2 2.125 1.415 0.124 24.141 o
-6 6 3 0.145 0.248 0.124 207.718 o
-6 6 4 0.285 0.196 0.176 120.740 o
-6 6 5 0.000 0.361 0.124 251.870 o
-6 6 6 0.936 1.817 0.124 40.693 o
-6 6 7 0.017 0.114 0.186 170.000 o
-6 6 8 0.005 0.196 0.186 162.551 o
-6 6 9 0.000 0.114 0.165 215.880 o
-6 6 10 0.561 0.650 0.134 83.966 o
-6 7 -5 0.036 0.072 0.227 118.481 o
-6 7 -4 0.885 0.434 0.196 56.618 o
-6 7 -3 0.530 0.196 0.145 106.584 o
-6 7 -2 0.011 0.795 0.527 21.834 o
-6 7 -1 1.140 0.702 0.124 51.622 o
-6 7 0 4.441 3.211 0.258 7.818 o
-6 7 1 2.689 2.912 0.310 12.293 o
-6 7 2 1.994 2.375 0.124 20.744 o
-6 7 3 7.311 8.405 0.527 2.648 o
-6 7 4 0.235 0.145 0.145 166.013 o
-6 7 5 4.796 4.254 0.134 6.739 o
-6 7 6 0.035 0.227 0.176 166.501 o
-6 7 7 0.245 0.041 0.176 140.467 o
-6 7 8 0.734 1.280 0.124 56.323 o
-6 7 9 0.061 0.052 0.165 204.003 o
-6 8 -5 0.617 0.444 0.134 88.117 o
-6 8 -4 0.150 0.196 0.155 168.972 o
-6 8 -3 0.002 0.010 0.052 2153.120 o
-6 8 -2 0.016 0.124 0.186 168.967 o
-6 8 -1 0.382 0.310 0.145 119.140 o
-6 8 0 0.155 0.031 0.145 212.321 o
-6 8 1 0.446 0.382 0.134 110.516 o
-6 8 2 1.488 0.888 0.176 35.402 o
-6 8 3 0.714 0.485 0.124 80.951 o
-6 8 4 0.059 0.330 0.124 228.147 o
-6 8 5 0.534 1.177 0.134 67.445 o
-6 8 6 0.662 0.537 0.124 83.108 o
-6 8 7 0.833 1.363 0.134 49.734 o
-6 8 8 0.120 0.310 0.145 175.036 o
-6 8 9 0.000 0.165 0.186 167.696 o
-6 9 -5 0.363 0.299 0.145 123.018 o
-6 9 -4 0.000 0.041 0.176 206.622 o
-6 9 -3 0.696 0.485 0.196 63.977 o
-6 9 -2 0.239 0.176 0.155 149.394 o
-6 9 -1 0.928 0.712 0.279 38.522 o
-6 9 0 1.283 0.919 0.279 30.828 o
-6 9 1 4.181 3.407 0.454 6.935 o
-6 9 2 1.518 2.168 0.289 21.052 o
-6 9 3 0.326 0.310 0.124 143.590 o
-6 9 4 0.776 1.177 0.124 56.758 o
-6 9 5 0.002 0.083 0.176 198.198 o
-6 9 6 0.304 0.145 0.186 113.840 o
-6 9 7 0.485 0.929 0.186 65.898 o
-6 9 8 0.062 0.155 0.155 204.729 o
-6 10 -4 0.462 0.330 0.145 106.695 o
-6 10 -3 0.043 0.083 0.237 107.776 o
-6 10 -2 0.254 0.176 0.165 136.220 o
-6 10 -1 0.284 0.207 0.196 105.327 o
-6 10 0 0.314 0.310 0.134 138.181 o
-6 10 1 0.451 0.165 0.155 113.323 o
-6 10 2 0.298 0.207 0.145 143.470 o
-6 10 3 0.861 0.888 0.124 59.465 o
-6 10 4 0.053 0.320 0.134 213.836 o
-6 10 5 0.140 0.196 0.196 124.756 o
-6 10 6 0.710 1.270 0.186 49.366 o
-6 10 7 0.315 0.537 0.134 118.225 o
-6 11 -3 0.006 0.134 0.217 128.868 o
-6 11 -2 0.007 0.196 0.207 135.301 o
-6 11 -1 0.287 0.176 0.207 100.041 o
-6 11 0 1.032 0.929 0.124 51.403 o
-6 11 1 0.557 0.764 0.372 32.560 o
-6 11 2 0.700 0.237 0.155 83.236 o
-6 11 3 0.001 0.072 0.207 147.621 o
-6 11 4 0.001 0.145 0.217 128.796 o
-6 11 5 0.055 0.217 0.176 162.731 o
-6 11 6 0.043 0.527 0.361 44.245 o
-6 12 -1 0.549 0.485 0.155 85.505 o
-6 12 0 0.112 0.103 0.258 86.538 o
-6 12 1 0.104 0.217 0.155 179.250 o
-6 12 2 0.390 0.434 0.134 114.763 o
-6 12 3 0.029 0.093 0.207 140.461 o
-6 12 4 0.085 0.134 0.196 139.040 o
-5 0 -3 11.271 6.928 0.227 1.918 o
-5 0 -1 0.477 0.320 0.165 95.717 o
-5 0 1 27.892 20.878 0.516 0.336 o
-5 0 3 3.850 2.292 0.155 10.905 o
-5 0 5 9.923 11.771 0.289 1.684 o
-5 0 7 0.798 0.785 0.196 53.194 o
-5 0 9 0.975 2.354 0.176 31.462 o
-5 0 11 0.004 0.072 0.248 103.714 o
-5 1 -4 10.506 7.186 0.165 2.085 o
-5 1 -3 2.475 1.363 0.196 19.530 o
-5 1 -2 0.093 0.207 0.176 155.094 o
-5 1 -1 13.162 9.024 0.165 1.405 o
-5 1 0 8.192 6.577 0.940 2.139 o
-5 1 1 7.099 8.023 0.351 2.988 o
-5 1 2 4.291 4.223 0.124 7.625 o
-5 1 3 0.463 0.310 0.196 83.866 o
-5 1 4 7.148 8.116 0.155 3.084 o
-5 1 5 4.661 6.288 0.176 5.523 o
-5 1 6 16.815 21.683 0.423 0.616 o
-5 1 7 14.138 19.855 0.351 0.797 o
-5 1 8 6.536 7.909 0.392 3.224 o
-5 1 9 1.187 1.848 0.134 34.272 o
-5 1 10 0.054 0.103 0.186 162.091 o
-5 1 11 0.265 0.351 0.134 144.007 o
-5 1 12 0.111 0.227 0.134 208.837 o
-5 2 -4 4.215 3.211 0.320 7.899 o
-5 2 -3 8.714 6.309 0.444 2.609 o
-5 2 -2 10.464 7.434 0.661 1.830 o
-5 2 -1 8.845 6.505 0.207 2.691 o
-5 2 0 1.632 1.002 0.103 35.199 o
-5 2 1 0.212 0.196 0.124 191.472 o
-5 2 2 9.400 6.577 0.145 2.503 o
-5 2 3 1.314 0.847 0.114 44.320 o
-5 2 4 2.614 4.378 0.134 11.656 o
-5 2 5 3.011 3.449 0.134 11.897 o
-5 2 6 4.513 4.863 0.155 6.666 o
-5 2 7 0.222 0.114 0.176 137.930 o
-5 2 8 0.438 1.002 0.145 77.053 o
-5 2 9 2.364 2.488 0.124 17.515 o
-5 2 10 0.462 1.094 0.124 76.900 o
-5 2 11 0.398 0.630 0.134 101.064 o
-5 3 -4 2.862 1.559 0.145 17.052 o
-5 3 -3 2.448 2.468 0.372 12.945 o
-5 3 -2 4.985 4.306 0.320 5.939 o
-5 3 -1 0.007 0.052 0.186 181.552 o
-5 3 0 17.592 14.682 0.361 0.747 o
-5 3 1 3.867 2.643 0.217 9.965 o
-5 3 2 1.001 0.289 0.114 69.722 o
-5 3 3 12.816 13.175 0.248 1.182 o
-5 3 4 3.487 2.375 0.124 12.183 o
-5 3 5 11.887 15.983 0.310 1.126 o
-5 3 6 4.214 7.145 0.599 4.348 o
-5 3 7 4.487 5.617 0.186 6.115 o
-5 3 8 3.504 5.472 0.207 7.678 o
-5 3 9 0.814 0.692 0.227 49.062 o
-5 3 10 0.067 0.124 0.196 143.236 o
-5 3 11 0.014 0.062 0.196 160.906 o
-5 4 -4 4.487 3.129 0.217 7.995 o
-5 4 -3 8.033 6.815 0.940 2.148 o
-5 4 -2 23.279 17.966 1.446 0.410 o
-5 4 -1 6.919 5.741 0.145 3.865 o
-5 4 0 2.887 2.643 0.124 14.150 o
-5 4 1 0.304 0.578 0.114 128.369 o
-5 4 2 0.000 0.041 0.155 262.351 o
-5 4 3 0.671 1.972 0.124 45.956 o
-5 4 4 6.008 5.441 0.145 4.658 o
-5 4 5 2.139 3.159 0.145 16.572 o
-5 4 6 1.368 2.024 0.145 29.314 o
-5 4 7 0.042 0.310 0.114 266.314 o
-5 4 8 3.536 3.676 0.134 9.895 o
-5 4 9 1.214 2.013 0.289 24.447 o
-5 4 10 2.707 3.603 0.134 12.765 o
-5 4 11 0.226 0.299 0.186 113.882 o
-5 5 -4 0.035 0.010 0.062 1065.550 o
-5 5 -3 0.393 0.661 0.134 99.876 o
-5 5 -2 0.948 1.198 0.145 47.622 o
-5 5 -1 10.836 9.200 0.650 1.610 o
-5 5 0 0.796 0.960 0.145 57.926 o
-5 5 1 1.227 1.415 0.176 35.348 o
-5 5 2 4.892 3.996 0.134 6.790 o
-5 5 3 6.178 4.863 0.496 4.100 o
-5 5 4 8.820 11.409 0.268 1.954 o
-5 5 5 0.552 0.052 0.186 91.832 o
-5 5 6 0.421 1.002 0.114 86.441 o
-5 5 7 1.573 3.366 0.124 20.109 o
-5 5 8 0.001 0.320 0.268 80.934 o
-5 5 9 0.082 0.155 0.186 149.891 o
-5 5 10 0.245 0.186 0.155 146.959 o
-5 5 11 0.093 0.155 0.155 193.004 o
-5 6 -4 2.216 1.693 0.124 21.807 o
-5 6 -3 11.018 6.887 0.248 1.975 o
-5 6 -2 6.581 6.133 0.165 3.943 o
-5 6 -1 7.629 6.298 0.165 3.285 o
-5 6 0 11.877 10.490 0.692 1.349 o
-5 6 1 0.292 0.609 0.124 122.001 o
-5 6 2 7.868 10.377 0.496 2.205 o
-5 6 3 0.625 0.227 0.186 78.842 o
-5 6 4 0.830 2.354 0.134 36.349 o
-5 6 5 5.121 4.368 1.446 2.108 o
-5 6 6 0.262 0.475 0.114 147.328 o
-5 6 7 0.063 0.207 0.124 260.727 o
-5 6 8 0.872 1.652 0.124 44.731 o
-5 6 9 2.839 4.192 0.145 11.154 o
-5 6 10 0.666 0.650 0.134 75.879 o
-5 6 11 0.348 0.454 0.134 119.518 o
-5 7 -4 0.058 0.186 0.155 200.291 o
-5 7 -3 0.667 0.289 0.124 94.175 o
-5 7 -2 1.735 1.704 0.227 23.592 o
-5 7 -1 2.614 2.137 0.320 13.916 o
-5 7 0 2.254 2.096 0.145 19.424 o
-5 7 1 0.286 0.599 0.227 73.769 o
-5 7 2 0.057 0.485 0.310 57.790 o
-5 7 3 3.379 3.645 0.176 10.176 o
-5 7 4 0.680 0.310 0.165 78.744 o
-5 7 5 0.021 0.227 0.134 253.746 o
-5 7 6 0.048 0.733 0.124 159.286 o
-5 7 7 1.938 2.241 0.124 21.852 o
-5 7 8 0.161 0.258 0.134 184.455 o
-5 7 9 0.029 0.010 0.083 749.176 o
-5 7 10 0.000 0.103 0.176 195.451 o
-5 8 -4 0.853 0.558 0.114 70.579 o
-5 8 -3 0.960 0.991 0.248 38.705 o
-5 8 -2 3.140 1.879 0.124 14.785 o
-5 8 -1 6.152 4.636 0.485 4.220 o
-5 8 0 0.059 0.227 0.124 257.108 o
-5 8 1 15.703 14.063 1.652 0.655 o
-5 8 2 0.838 1.084 0.114 57.265 o
-5 8 3 3.777 5.514 0.361 6.547 o
-5 8 4 0.974 1.022 0.114 52.861 o
-5 8 5 0.517 0.444 0.124 102.160 o
-5 8 6 0.839 0.423 0.134 71.871 o
-5 8 7 0.741 1.631 0.124 49.258 o
-5 8 8 0.302 1.084 0.124 90.831 o
-5 8 9 0.184 0.279 0.124 186.750 o
-5 8 10 0.280 0.609 0.134 118.054 o
-5 9 -4 2.948 1.910 0.134 15.624 o
-5 9 -3 0.047 0.114 0.176 178.916 o
-5 9 -2 0.010 0.083 0.155 245.169 o
-5 9 -1 0.039 0.072 0.186 169.598 o
-5 9 0 2.014 2.044 0.124 22.058 o
-5 9 1 0.328 0.165 0.165 124.393 o
-5 9 2 0.043 0.227 0.176 164.602 o
-5 9 3 0.803 0.723 0.114 68.510 o
-5 9 4 0.100 0.361 0.114 219.198 o
-5 9 5 0.380 1.415 0.124 71.504 o
-5 9 6 2.124 2.323 0.268 16.981 o
-5 9 7 0.078 0.145 0.165 182.211 o
-5 9 8 1.196 1.693 0.186 32.705 o
-5 9 9 0.049 0.072 0.207 138.754 o
-5 10 -4 0.091 0.155 0.196 136.088 o
-5 10 -3 0.125 0.165 0.196 129.519 o
-5 10 -2 0.100 0.145 0.196 135.454 o
-5 10 -1 0.030 0.176 0.134 264.136 o
-5 10 0 4.784 4.553 0.454 5.511 o
-5 10 1 0.848 1.146 0.124 54.349 o
-5 10 2 5.427 6.319 0.836 3.208 o
-5 10 3 0.138 0.196 0.134 204.219 o
-5 10 4 0.023 0.176 0.145 240.623 o
-5 10 5 0.149 0.279 0.155 158.361 o
-5 10 6 0.939 1.580 0.124 43.807 o
-5 10 7 0.050 0.124 0.186 160.660 o
-5 10 8 0.011 0.052 0.134 327.538 o
-5 11 -4 0.000 0.031 0.145 303.454 o
-5 11 -3 0.449 0.444 0.186 83.861 o
-5 11 -2 0.217 0.124 0.196 118.982 o
-5 11 -1 0.365 0.413 0.196 87.538 o
-5 11 0 0.058 0.237 0.134 230.796 o
-5 11 1 0.267 0.227 0.134 158.141 o
-5 11 2 1.655 1.208 0.134 31.621 o
-5 11 3 0.030 0.052 0.176 193.988 o
-5 11 4 2.671 3.996 0.485 8.677 o
-5 11 5 0.292 0.599 0.124 122.831 o
-5 11 6 0.357 0.991 0.310 42.931 o
-5 11 7 0.978 1.580 0.237 33.781 o
-5 11 8 0.035 0.052 0.207 143.169 o
-5 12 -4 0.000 0.021 0.124 414.079 o
-5 12 -3 0.141 0.237 0.165 153.214 o
-5 12 -2 0.110 0.248 0.196 125.459 o
-5 12 -1 0.016 0.083 0.217 131.335 o
-5 12 0 0.103 0.145 0.207 124.386 o
-5 12 1 1.414 1.848 0.165 29.096 o
-5 12 2 0.050 0.176 0.196 141.637 o
-5 12 3 0.139 0.176 0.165 160.956 o
-5 12 4 0.048 0.134 0.165 193.738 o
-5 12 5 0.492 0.847 0.134 81.538 o
-5 12 6 0.000 0.145 0.165 209.554 o
-5 13 -2 0.000 0.114 0.196 158.052 o
-5 13 -1 0.409 0.475 0.134 109.293 o
-5 13 0 0.054 0.165 0.186 154.863 o
-5 13 1 0.126 0.207 0.176 147.715 o
-5 13 2 0.001 0.145 0.217 128.905 o
-5 13 3 2.389 2.829 0.217 15.115 o
-5 13 4 0.000 0.124 0.186 173.131 o
-5 13 5 1.027 1.724 0.134 38.969 o
-5 14 1 0.093 0.062 0.145 233.765 o
-5 14 2 0.040 0.176 0.237 103.311 o
-4 0 -2 14.874 13.278 0.330 0.976 o
-4 0 0 216.217 196.405 1.786 0.006 o
-4 0 2 107.481 115.601 1.342 0.020 o
-4 0 4 1.540 1.972 0.196 25.423 o
-4 0 6 4.994 6.082 0.196 5.244 o
-4 0 8 6.237 7.950 0.248 3.526 o
-4 0 10 0.544 0.578 0.165 78.869 o
-4 0 12 2.456 3.108 0.207 14.251 o
-4 1 -3 0.384 0.454 0.145 108.680 o
-4 1 -2 27.189 18.234 1.869 0.315 o
-4 1 -1 0.141 0.021 0.093 373.200 o
-4 1 0 1.792 1.218 0.103 30.375 o
-4 1 1 13.356 13.588 0.248 1.106 o
-4 1 2 39.564 42.767 0.599 0.140 o
-4 1 3 5.295 7.104 0.134 4.566 o
-4 1 4 1.594 2.922 0.103 22.220 o
-4 1 5 5.649 4.574 0.124 5.449 o
-4 1 6 6.358 6.247 0.145 4.072 o
-4 1 7 4.003 3.242 0.134 9.249 o
-4 1 8 0.070 0.083 0.217 123.387 o
-4 1 9 0.007 0.186 0.124 311.151 o
-4 1 10 2.375 3.314 0.268 13.312 o
-4 1 11 0.138 0.176 0.155 175.302 o
-4 1 12 0.105 0.155 0.155 188.918 o
-4 2 -3 0.307 0.165 0.124 166.358 o
-4 2 -2 1.963 1.260 0.207 24.309 o
-4 2 -1 65.690 55.013 0.702 0.062 o
-4 2 0 1.448 1.807 0.145 29.738 o
-4 2 1 133.605 129.261 1.476 0.014 o
-4 2 2 5.255 3.707 0.103 6.515 o
-4 2 3 13.215 14.879 0.289 1.054 o
-4 2 4 24.661 26.340 0.609 0.342 o
-4 2 5 0.378 1.074 0.114 87.063 o
-4 2 6 1.274 1.838 0.124 33.207 o
-4 2 7 6.256 8.436 0.165 3.445 o
-4 2 8 1.838 2.034 0.145 23.428 o
-4 2 9 0.614 0.743 0.114 81.007 o
-4 2 10 0.383 0.382 0.124 125.742 o
-4 2 11 1.527 1.993 0.155 26.966 o
-4 2 12 0.001 0.031 0.145 302.896 o
-4 3 -3 28.641 23.077 2.819 0.227 o
-4 3 -2 4.518 3.593 0.537 5.895 o
-4 3 -1 55.864 40.237 0.733 0.091 o
-4 3 0 3.278 2.788 0.310 10.617 o
-4 3 1 6.423 6.402 0.196 3.933 o
-4 3 2 0.034 0.145 0.114 344.027 o
-4 3 3 35.383 39.494 0.609 0.169 o
-4 3 4 1.607 1.786 0.114 28.574 o
-4 3 5 0.057 0.145 0.165 189.020 o
-4 3 6 1.183 0.816 0.124 48.097 o
-4 3 7 0.061 0.114 0.196 145.385 o
-4 3 8 0.612 0.114 0.165 92.617 o
-4 3 9 6.224 7.888 0.155 3.624 o
-4 3 10 0.115 0.021 0.103 364.202 o
-4 3 11 1.957 2.932 0.134 18.666 o
-4 3 12 0.003 0.062 0.196 163.436 o
-4 4 -3 7.710 5.070 0.268 3.489 o
-4 4 -2 3.942 3.872 0.279 8.028 o
-4 4 -1 0.862 0.857 0.103 62.869 o
-4 4 0 29.901 26.949 1.404 0.250 o
-4 4 1 2.354 2.581 0.103 17.491 o
-4 4 2 15.451 13.949 0.279 0.910 o
-4 4 3 27.197 26.887 0.867 0.295 o
-4 4 4 0.430 0.558 0.155 93.042 o
-4 4 5 17.274 21.600 0.382 0.601 o
-4 4 6 0.993 2.230 0.124 34.805 o
-4 4 7 1.440 1.415 0.134 33.585 o
-4 4 8 1.474 1.735 0.114 31.018 o
-4 4 9 2.835 3.397 0.134 12.664 o
-4 4 10 0.002 0.072 0.217 134.326 o
-4 4 11 0.019 0.134 0.165 204.252 o
-4 4 12 0.224 0.475 0.124 148.000 o
-4 5 -3 1.563 0.888 0.124 36.908 o
-4 5 -2 50.102 43.603 0.723 0.101 o
-4 5 -1 5.786 4.264 0.134 5.458 o
-4 5 0 10.006 7.620 0.268 2.128 o
-4 5 1 0.842 1.136 0.103 57.020 o
-4 5 2 19.138 20.754 0.361 0.549 o
-4 5 3 3.669 5.555 0.186 7.383 o
-4 5 4 12.537 12.690 0.217 1.244 o
-4 5 5 0.906 0.671 0.124 62.611 o
-4 5 6 1.489 1.528 0.134 31.726 o
-4 5 7 1.091 2.550 0.145 29.510 o
-4 5 8 5.583 7.486 0.237 4.091 o
-4 5 9 0.184 0.145 0.145 180.867 o
-4 5 10 4.797 6.505 0.485 4.524 o
-4 5 11 0.074 0.124 0.186 155.032 o
-4 6 -3 1.662 1.053 0.134 32.839 o
-4 6 -2 0.615 0.227 0.155 91.116 o
-4 6 -1 0.440 0.640 0.114 103.540 o
-4 6 0 11.091 9.922 0.186 1.661 o
-4 6 1 0.077 0.165 0.124 264.998 o
-4 6 2 0.055 0.145 0.155 209.286 o
-4 6 3 0.436 0.052 0.165 116.791 o
-4 6 4 16.544 18.276 0.599 0.691 o
-4 6 5 0.309 1.022 0.124 93.228 o
-4 6 6 0.340 0.392 0.134 125.756 o
-4 6 7 0.095 0.372 0.165 148.406 o
-4 6 8 3.240 4.553 0.134 9.515 o
-4 6 9 0.087 0.062 0.196 145.408 o
-4 6 10 0.226 0.310 0.134 157.923 o
-4 6 11 0.073 0.031 0.114 364.531 o
-4 7 -3 14.206 12.535 0.392 1.059 o
-4 7 -2 1.497 0.589 0.124 42.117 o
-4 7 -1 14.689 12.700 0.237 1.024 o
-4 7 0 0.035 0.124 0.186 164.196 o
-4 7 1 0.014 0.134 0.165 206.216 o
-4 7 2 7.807 10.232 0.258 2.386 o
-4 7 3 6.225 6.618 0.351 3.798 o
-4 7 4 0.162 0.062 0.196 131.984 o
-4 7 5 4.308 3.686 0.372 7.047 o
-4 7 6 9.263 10.305 0.568 1.841 o
-4 7 7 3.534 4.915 0.134 8.407 o
-4 7 8 1.103 1.859 0.134 35.828 o
-4 7 9 3.278 5.173 0.176 8.541 o
-4 7 10 0.124 0.134 0.207 122.039 o
-4 7 11 0.710 0.671 0.134 72.173 o
-4 8 -3 0.883 0.547 0.207 52.681 o
-4 8 -2 0.474 0.434 0.196 78.528 o
-4 8 -1 4.564 4.812 0.155 6.629 o
-4 8 0 3.534 2.994 0.145 10.848 o
-4 8 1 9.988 9.334 0.186 1.946 o
-4 8 2 0.769 1.146 0.134 56.447 o
-4 8 3 0.030 0.227 0.134 248.782 o
-4 8 4 0.953 1.538 0.165 40.764 o
-4 8 5 0.510 0.496 0.103 107.535 o
-4 8 6 0.024 0.692 0.114 183.570 o
-4 8 7 0.897 1.920 0.114 40.983 o
-4 8 8 0.165 0.382 0.124 176.030 o
-4 8 9 0.364 0.527 0.165 96.675 o
-4 8 10 0.084 0.052 0.165 195.524 o
-4 9 -3 0.520 0.723 0.114 90.240 o
-4 9 -2 1.307 1.187 0.145 38.064 o
-4 9 -1 0.043 0.052 0.165 211.012 o
-4 9 0 0.538 0.227 0.186 85.461 o
-4 9 1 3.705 5.276 0.165 7.628 o
-4 9 2 0.007 0.186 0.186 163.526 o
-4 9 3 1.488 2.333 0.258 21.789 o
-4 9 4 1.116 0.599 0.114 55.745 o
-4 9 5 5.195 5.989 0.155 5.147 o
-4 9 6 2.241 2.540 0.165 17.602 o
-4 9 7 5.071 6.722 0.712 3.614 o
-4 9 8 1.030 2.437 0.134 31.792 o
-4 9 9 0.059 0.279 0.134 220.505 o
-4 9 10 0.210 0.186 0.165 143.898 o
-4 10 -3 2.555 2.158 0.124 17.349 o
-4 10 -2 0.814 0.847 0.114 64.350 o
-4 10 -1 0.415 0.485 0.114 117.629 o
-4 10 0 6.727 6.433 0.145 3.767 o
-4 10 1 2.021 2.106 0.165 20.882 o
-4 10 2 5.016 3.645 0.444 5.792 o
-4 10 3 0.848 1.136 0.176 48.410 o
-4 10 4 0.981 0.671 0.361 29.079 o
-4 10 5 1.348 2.664 0.207 23.399 o
-4 10 6 0.410 0.774 0.124 95.569 o
-4 10 7 0.185 0.031 0.134 219.545 o
-4 10 8 0.102 0.165 0.186 144.882 o
-4 10 9 0.113 0.186 0.165 166.292 o
-4 11 -3 0.058 0.031 0.134 296.298 o
-4 11 -2 0.000 0.248 0.176 173.151 o
-4 11 -1 0.597 0.681 0.124 82.508 o
-4 11 0 0.214 0.671 0.124 129.953 o
-4 11 1 0.191 0.062 0.176 149.347 o
-4 11 2 1.334 2.189 0.227 25.252 o
-4 11 3 0.302 0.465 0.114 139.634 o
-4 11 4 0.176 0.248 0.124 195.291 o
-4 11 5 0.467 0.227 0.176 96.560 o
-4 11 6 2.493 3.686 0.134 13.491 o
-4 11 7 0.437 0.898 0.124 86.935 o
-4 11 8 0.447 0.382 0.124 115.610 o
-4 12 -3 0.327 0.320 0.134 134.599 o
-4 12 -2 0.452 0.496 0.124 107.081 o
-4 12 -1 1.187 1.187 0.134 41.669 o
-4 12 0 0.261 0.434 0.145 128.841 o
-4 12 1 2.253 1.786 0.165 20.284 o
-4 12 2 0.214 0.248 0.124 181.812 o
-4 12 3 2.738 2.003 0.176 16.055 o
-4 12 4 2.436 3.862 0.227 12.508 o
-4 12 5 1.129 1.580 0.155 37.016 o
-4 12 6 0.160 0.258 0.145 171.050 o
-4 12 7 0.025 0.186 0.176 174.903 o
-4 12 8 0.257 0.361 0.134 144.646 o
-4 13 -3 0.001 0.052 0.186 183.117 o
-4 13 -2 1.189 1.404 0.155 37.607 o
-4 13 -1 0.007 0.155 0.176 184.876 o
-4 13 0 0.212 0.176 0.196 116.057 o
-4 13 1 0.061 0.227 0.155 191.746 o
-4 13 2 0.649 0.950 0.124 69.253 o
-4 13 3 0.036 0.155 0.207 133.980 o
-4 13 4 0.050 0.227 0.176 162.818 o
-4 13 5 0.073 0.475 0.145 164.954 o
-4 13 6 0.224 0.423 0.155 128.286 o
-4 14 -3 0.327 0.186 0.186 108.337 o
-4 14 -2 0.277 0.423 0.217 84.553 o
-4 14 -1 0.076 0.041 0.176 180.888 o
-4 14 0 0.067 0.248 0.207 122.150 o
-4 14 1 0.108 0.207 0.145 196.154 o
-4 14 2 0.531 0.258 0.145 102.666 o
-4 14 3 1.067 2.158 0.134 33.612 o
-4 14 4 1.117 1.280 0.134 42.307 o
-4 14 5 0.636 0.940 0.134 68.392 o
-4 15 0 0.015 0.155 0.207 137.440 o
-4 15 1 0.042 0.031 0.114 406.789 o
-4 15 2 0.013 0.062 0.237 112.132 o
-3 0 -1 68.284 54.093 0.826 0.059 o
-3 0 1 4.274 1.962 0.103 10.346 o
-3 0 3 61.749 92.255 1.105 0.046 o
-3 0 5 0.479 1.879 0.134 53.287 o
-3 0 7 11.244 10.656 0.299 1.550 o
-3 0 9 0.178 0.299 0.176 129.360 o
-3 0 11 3.167 3.810 0.207 10.355 o
-3 1 -2 25.120 23.448 2.179 0.291 o
-3 1 -1 26.083 22.178 1.466 0.323 o
-3 1 0 181.726 163.272 7.568 0.007 o
-3 1 1 270.987 273.483 10.573 0.003 o
-3 1 2 146.379 156.973 5.070 0.010 o
-3 1 3 12.501 17.532 0.268 1.002 o
-3 1 4 1.071 1.280 0.558 14.875 o
-3 1 5 37.486 43.810 1.033 0.144 o
-3 1 6 14.461 17.037 0.330 0.868 o
-3 1 7 4.163 5.369 0.134 6.854 o
-3 1 8 3.338 3.294 0.134 11.046 o
-3 1 9 0.062 0.134 0.134 257.190 o
-3 1 10 1.757 1.662 0.186 25.108 o
-3 1 11 0.693 0.599 0.124 78.143 o
-3 1 12 1.257 1.559 0.093 37.644 o
-3 2 -2 5.761 4.378 0.310 5.097 o
-3 2 -1 21.849 16.686 0.702 0.512 o
-3 2 0 26.367 22.085 0.589 0.350 o
-3 2 1 6.131 4.574 0.165 4.915 o
-3 2 2 34.849 49.138 1.373 0.142 o
-3 2 3 83.334 82.075 2.746 0.034 o
-3 2 4 36.744 49.550 0.929 0.136 o
-3 2 5 12.960 15.942 0.299 1.028 o
-3 2 6 1.365 1.105 0.227 32.084 o
-3 2 7 0.010 0.072 0.196 160.479 o
-3 2 8 0.876 0.496 0.124 69.245 o
-3 2 9 0.117 0.237 0.196 125.180 o
-3 2 10 2.154 2.705 0.124 18.209 o
-3 2 11 0.141 0.196 0.176 145.684 o
-3 2 12 0.795 1.074 0.103 60.748 o
-3 3 -2 16.544 14.651 0.279 0.813 o
-3 3 -1 38.390 34.455 2.199 0.149 o
-3 3 0 53.093 43.376 4.006 0.077 o
-3 3 1 36.598 34.589 0.496 0.177 o
-3 3 2 67.260 66.380 0.909 0.053 o
-3 3 3 7.501 5.256 0.124 3.665 o
-3 3 4 16.067 18.740 0.299 0.724 o
-3 3 5 0.461 0.857 0.165 74.883 o
-3 3 6 11.485 14.765 0.258 1.241 o
-3 3 7 5.058 4.399 0.134 6.261 o
-3 3 8 2.022 2.303 0.217 18.928 o
-3 3 9 4.797 4.822 0.134 6.328 o
-3 3 10 0.735 0.878 0.114 67.933 o
-3 3 11 1.388 2.034 0.103 30.299 o
-3 3 12 0.471 0.589 0.103 106.643 o
-3 4 -2 16.853 13.319 0.227 0.839 o
-3 4 -1 1.799 4.016 2.457 1.029 o
-3 4 0 11.580 8.714 0.475 1.604 o
-3 4 1 12.401 14.321 0.650 1.096 o
-3 4 2 92.383 89.426 0.795 0.029 o
-3 4 3 52.762 64.790 0.847 0.073 o
-3 4 4 84.736 94.579 0.898 0.031 o
-3 4 5 14.814 16.056 0.413 0.870 o
-3 4 6 0.970 1.363 0.196 39.726 o
-3 4 7 0.504 0.909 0.114 83.247 o
-3 4 8 0.097 0.279 0.176 146.320 o
-3 4 9 0.617 1.435 0.114 59.347 o
-3 4 10 0.652 0.650 0.176 66.941 o
-3 4 11 0.441 0.764 0.103 99.501 o
-3 4 12 0.015 0.062 0.165 220.528 o
-3 5 -2 25.934 22.695 0.351 0.357 o
-3 5 -1 1.239 1.291 0.103 40.857 o
-3 5 0 0.256 0.444 0.093 169.054 o
-3 5 1 26.606 24.925 0.805 0.318 o
-3 5 2 0.433 0.981 0.093 91.453 o
-3 5 3 0.406 0.052 0.145 137.285 o
-3 5 4 4.508 2.984 0.114 8.448 o
-3 5 5 7.789 10.573 0.207 2.359 o
-3 5 6 0.808 1.249 0.114 54.982 o
-3 5 7 0.398 0.454 0.124 117.516 o
-3 5 8 2.898 2.282 0.155 14.707 o
-3 5 9 3.626 3.872 0.186 9.187 o
-3 5 10 1.561 1.972 0.124 27.617 o
-3 5 11 0.057 0.114 0.145 239.031 o
-3 5 12 0.011 0.134 0.124 331.261 o
-3 6 -2 0.044 0.072 0.155 230.079 o
-3 6 -1 20.266 16.747 0.578 0.570 o
-3 6 0 14.008 13.609 0.929 0.926 o
-3 6 1 4.266 4.822 0.114 7.167 o
-3 6 2 25.902 31.492 0.558 0.287 o
-3 6 3 78.693 82.374 0.909 0.038 o
-3 6 4 24.545 24.760 0.981 0.347 o
-3 6 5 11.334 11.853 0.227 1.457 o
-3 6 6 14.303 14.507 0.268 0.978 o
-3 6 7 0.607 1.797 0.299 32.453 o
-3 6 8 3.038 4.791 0.392 8.111 o
-3 6 9 0.118 0.207 0.124 229.842 o
-3 6 10 0.065 0.372 0.103 254.344 o
-3 6 11 0.499 0.589 0.103 103.070 o
-3 6 12 0.045 0.186 0.165 186.092 o
-3 7 -2 2.118 2.199 0.145 20.090 o
-3 7 -1 0.011 0.031 0.114 458.709 o
-3 7 0 0.296 0.372 0.114 151.539 o
-3 7 1 19.802 19.948 0.485 0.536 o
-3 7 2 0.888 0.692 0.279 39.539 o
-3 7 3 0.328 0.671 0.124 111.833 o
-3 7 4 0.545 1.662 0.114 57.431 o
-3 7 5 9.301 12.834 1.817 0.931 o
-3 7 6 0.067 0.041 0.165 203.728 o
-3 7 7 0.376 0.733 0.196 75.061 o
-3 7 8 0.885 1.662 0.145 42.619 o
-3 7 9 0.836 1.156 0.124 54.642 o
-3 7 10 0.294 0.258 0.134 147.944 o
-3 7 11 0.002 0.124 0.176 191.221 o
-3 8 -2 1.450 1.146 0.258 28.483 o
-3 8 -1 9.908 8.673 0.320 2.002 o
-3 8 0 2.939 2.117 0.114 15.296 o
-3 8 1 15.282 17.006 0.537 0.798 o
-3 8 2 8.802 10.955 0.217 2.027 o
-3 8 3 6.596 6.897 0.237 3.632 o
-3 8 4 9.135 9.262 0.237 2.152 o
-3 8 5 13.338 11.843 0.743 1.100 o
-3 8 6 0.143 0.878 0.134 118.504 o
-3 8 7 10.531 11.843 0.867 1.357 o
-3 8 8 0.223 0.341 0.155 135.833 o
-3 8 9 0.568 1.260 0.279 40.276 o
-3 8 10 0.352 0.475 0.103 134.962 o
-3 8 11 0.193 0.320 0.103 202.331 o
-3 9 -2 0.176 0.237 0.145 169.468 o
-3 9 -1 1.557 1.528 0.124 30.984 o
-3 9 0 13.513 13.732 0.258 1.082 o
-3 9 1 0.160 0.176 0.145 183.567 o
-3 9 2 12.825 13.402 0.248 1.169 o
-3 9 3 0.139 0.072 0.227 106.395 o
-3 9 4 1.706 3.232 0.145 19.262 o
-3 9 5 0.156 0.145 0.155 174.718 o
-3 9 6 4.345 5.720 0.630 4.648 o
-3 9 7 0.013 0.207 0.124 297.318 o
-3 9 8 0.002 0.072 0.207 147.463 o
-3 9 9 0.106 0.155 0.207 123.130 o
-3 9 10 0.001 0.186 0.124 315.831 o
-3 10 -2 1.286 0.774 0.114 46.247 o
-3 10 -1 0.261 0.403 0.351 43.331 o
-3 10 0 9.623 10.026 0.475 1.846 o
-3 10 1 0.077 0.052 0.186 162.637 o
-3 10 2 0.827 1.074 0.165 51.489 o
-3 10 3 0.211 0.640 0.403 33.690 o
-3 10 4 0.647 0.341 0.114 96.835 o
-3 10 5 0.070 0.609 0.114 181.993 o
-3 10 6 6.236 6.391 0.299 3.939 o
-3 10 7 0.294 0.785 0.134 104.233 o
-3 10 8 2.201 2.963 0.392 12.553 o
-3 10 9 0.008 0.165 0.124 318.844 o
-3 10 10 0.047 0.145 0.134 262.965 o
-3 11 -2 8.101 7.744 0.227 2.728 o
-3 11 -1 1.296 1.507 0.124 35.999 o
-3 11 0 1.482 1.735 0.103 31.203 o
-3 11 1 7.056 7.424 0.227 3.251 o
-3 11 2 0.066 0.072 0.196 148.397 o
-3 11 3 0.457 0.072 0.196 94.493 o
-3 11 4 0.865 0.671 0.114 66.426 o
-3 11 5 1.803 3.552 0.196 16.674 o
-3 11 6 0.037 0.310 0.124 245.564 o
-3 11 7 0.440 0.372 0.237 67.909 o
-3 11 8 0.915 0.702 0.207 48.973 o
-3 11 9 0.000 0.010 0.052 2220.450 o
-3 12 -2 0.331 0.537 0.114 127.222 o
-3 12 -1 2.981 2.746 0.258 12.209 o
-3 12 0 0.036 0.165 0.165 192.602 o
-3 12 1 0.523 0.516 0.124 97.317 o
-3 12 2 0.321 0.217 0.124 155.739 o
-3 12 3 0.664 1.260 0.124 60.000 o
-3 12 4 0.442 0.950 0.124 84.212 o
-3 12 5 0.121 0.341 0.134 184.019 o
-3 12 6 0.029 0.341 0.134 219.636 o
-3 12 7 1.291 1.869 0.124 32.620 o
-3 12 8 0.007 0.041 0.155 258.547 o
-3 13 -2 0.004 0.114 0.186 173.622 o
-3 13 -1 3.664 4.192 0.145 8.888 o
-3 13 0 0.353 0.341 0.124 135.056 o
-3 13 1 0.079 0.145 0.176 165.911 o
-3 13 2 0.291 0.258 0.134 148.510 o
-3 13 3 0.235 0.299 0.207 99.039 o
-3 13 4 0.029 0.279 0.134 234.810 o
-3 13 5 0.470 0.743 0.124 91.090 o
-3 13 6 0.101 0.176 0.134 225.034 o
-3 13 7 0.258 0.310 0.176 116.423 o
-3 14 -2 0.318 0.320 0.176 107.904 o
-3 14 -1 0.576 0.702 0.186 67.116 o
-3 14 0 0.313 0.361 0.134 133.393 o
-3 14 1 0.020 0.733 0.568 19.079 o
-3 14 2 0.344 0.681 0.124 108.982 o
-3 14 3 0.352 0.712 0.145 97.284 o
-3 14 4 0.473 0.754 0.134 87.087 o
-3 14 5 0.005 0.330 0.124 258.616 o
-3 14 6 0.024 0.165 0.186 161.737 o
-3 15 -2 1.955 2.292 0.165 20.651 o
-3 15 -1 0.026 0.217 0.186 155.279 o
-3 15 0 0.246 0.248 0.134 160.709 o
-3 15 1 0.102 0.217 0.145 196.459 o
-3 15 2 0.001 0.114 0.196 157.918 o
-3 15 3 0.006 0.207 0.176 177.269 o
-3 15 4 0.227 0.465 0.176 110.266 o
-2 0 0 77.116 68.941 0.733 0.043 o
-2 0 2 181.130 209.012 1.373 0.007 o
-2 0 4 69.781 81.218 0.981 0.044 o
-2 0 6 180.794 200.762 1.848 0.007 o
-2 0 8 24.763 25.070 0.423 0.355 o
-2 0 10 0.095 0.103 0.165 183.446 o
-2 0 12 0.178 0.196 0.176 138.542 o
-2 1 -1 58.315 56.055 2.901 0.066 o
-2 1 0 111.060 99.008 2.736 0.021 o
-2 1 1 154.448 134.062 5.400 0.011 o
-2 1 2 5.743 9.138 0.165 3.534 o
-2 1 3 6.334 10.563 0.299 2.821 o
-2 1 4 137.688 159.988 2.086 0.012 o
-2 1 5 8.302 10.459 0.196 2.228 o
-2 1 6 1.724 3.129 0.165 19.162 o
-2 1 7 0.479 0.547 0.103 108.285 o
-2 1 8 4.976 5.276 0.145 5.791 o
-2 1 9 0.055 0.227 0.114 287.307 o
-2 1 10 0.022 0.114 0.155 231.014 o
-2 1 11 1.184 1.342 0.093 42.182 o
-2 1 12 0.563 0.681 0.124 85.315 o
-2 1 13 0.217 0.227 0.155 148.726 o
-2 2 -1 8.987 10.253 0.372 2.011 o
-2 2 0 13.634 14.631 0.279 1.029 o
-2 2 1 107.063 105.265 1.322 0.021 o
-2 2 2 99.545 105.575 1.404 0.023 o
-2 2 3 1.485 0.599 0.165 39.282 o
-2 2 4 15.752 24.120 0.423 0.610 o
-2 2 5 117.138 143.509 1.497 0.015 o
-2 2 6 0.138 0.093 0.165 172.124 o
-2 2 7 57.457 60.588 0.805 0.069 o
-2 2 8 1.561 1.353 0.145 31.545 o
-2 2 9 1.928 1.569 0.093 26.185 o
-2 2 10 1.528 1.859 0.083 30.005 o
-2 2 11 0.033 0.103 0.165 204.646 o
-2 2 12 0.003 0.145 0.176 187.687 o
-2 3 -1 4.183 4.429 0.392 6.581 o
-2 3 0 6.375 5.452 0.341 4.097 o
-2 3 1 0.003 0.041 0.114 462.371 o
-2 3 2 4.660 1.755 0.072 9.642 o
-2 3 3 211.793 237.334 6.939 0.005 o
-2 3 4 0.010 0.165 0.124 317.251 o
-2 3 5 69.564 83.056 0.805 0.044 o
-2 3 6 0.378 0.268 0.186 98.113 o
-2 3 7 4.060 4.347 0.176 7.799 o
-2 3 8 1.397 1.786 0.155 30.262 o
-2 3 9 4.670 5.390 0.124 6.134 o
-2 3 10 0.854 1.384 0.093 52.255 o
-2 3 11 0.005 0.072 0.145 284.024 o
-2 3 12 0.175 0.403 0.134 159.064 o
-2 4 -1 110.856 100.836 4.399 0.020 o
-2 4 0 0.205 0.124 0.093 264.617 o
-2 4 1 41.926 41.363 0.981 0.131 o
-2 4 2 5.761 5.008 0.134 5.096 o
-2 4 3 96.776 118.130 2.189 0.022 o
-2 4 4 8.445 16.551 0.558 1.452 o
-2 4 5 0.048 0.062 0.165 207.003 o
-2 4 6 21.106 24.997 0.733 0.421 o
-2 4 7 0.037 0.176 0.134 259.747 o
-2 4 8 3.639 2.592 0.103 11.352 o
-2 4 9 4.210 4.399 0.093 7.671 o
-2 4 10 0.091 0.072 0.145 232.335 o
-2 4 11 0.560 1.022 0.103 76.522 o
-2 4 12 0.128 0.134 0.165 169.260 o
-2 5 -1 13.132 11.399 0.650 1.167 o
-2 5 0 5.546 4.987 0.207 5.223 o
-2 5 1 15.739 21.146 0.444 0.673 o
-2 5 2 72.923 77.852 0.723 0.043 o
-2 5 3 4.321 1.951 0.237 9.549 o
-2 5 4 113.527 127.640 3.583 0.017 o
-2 5 5 2.154 2.808 0.217 16.447 o
-2 5 6 3.498 2.426 0.320 10.397 o
-2 5 7 2.390 2.654 0.196 15.887 o
-2 5 8 6.709 9.065 0.279 2.993 o
-2 5 9 1.175 2.086 0.072 34.467 o
-2 5 10 1.533 1.373 0.103 33.497 o
-2 5 11 0.044 0.083 0.176 184.489 o
-2 5 12 0.069 0.103 0.155 212.385 o
-2 6 -1 0.007 0.083 0.134 316.833 o
-2 6 0 5.619 5.090 0.114 5.218 o
-2 6 1 1.102 0.403 0.093 63.392 o
-2 6 2 54.218 60.227 2.519 0.070 o
-2 6 3 0.584 1.218 0.103 68.365 o
-2 6 4 2.740 3.221 0.217 12.678 o
-2 6 5 0.153 0.134 0.155 177.140 o
-2 6 6 6.049 7.692 0.155 3.790 o
-2 6 7 0.006 0.279 0.114 305.687 o
-2 6 8 0.181 0.196 0.114 219.954 o
-2 6 9 0.174 0.103 0.145 191.045 o
-2 6 10 1.558 1.890 0.155 27.226 o
-2 6 11 0.155 0.268 0.124 199.656 o
-2 6 12 0.011 0.062 0.134 322.629 o
-2 7 -1 26.646 26.350 0.620 0.311 o
-2 7 0 69.555 70.634 0.764 0.049 o
-2 7 1 34.990 37.356 1.012 0.175 o
-2 7 2 8.410 12.235 0.372 1.916 o
-2 7 3 52.021 59.349 2.137 0.076 o
-2 7 4 5.454 5.132 0.134 5.347 o
-2 7 5 15.655 11.998 0.361 0.962 o
-2 7 6 0.044 0.041 0.155 237.885 o
-2 7 7 0.085 1.125 0.134 109.140 o
-2 7 8 1.990 3.015 0.217 16.800 o
-2 7 9 1.540 1.797 0.258 23.790 o
-2 7 10 0.126 0.052 0.165 181.895 o
-2 7 11 0.376 0.268 0.103 152.466 o
-2 8 -1 5.860 6.433 0.134 4.381 o
-2 8 0 0.325 0.031 0.114 194.283 o
-2 8 1 3.872 4.832 0.124 7.838 o
-2 8 2 6.945 6.660 0.134 3.574 o
-2 8 3 3.081 2.932 0.124 12.677 o
-2 8 4 0.425 0.330 0.145 111.483 o
-2 8 5 6.989 9.716 0.237 2.770 o
-2 8 6 5.118 6.154 0.134 5.165 o
-2 8 7 4.093 4.171 0.103 8.099 o
-2 8 8 0.103 0.650 0.093 185.099 o
-2 8 9 0.034 0.196 0.155 207.472 o
-2 8 10 0.419 0.485 0.103 121.892 o
-2 8 11 0.034 0.062 0.165 212.400 o
-2 9 -1 27.430 27.434 0.578 0.294 o
-2 9 0 17.000 17.088 0.434 0.711 o
-2 9 1 38.707 45.214 1.642 0.132 o
-2 9 2 11.962 14.992 0.547 1.129 o
-2 9 3 0.187 0.268 0.124 187.641 o
-2 9 4 3.058 2.416 0.176 13.447 o
-2 9 5 0.635 0.743 0.134 74.809 o
-2 9 6 0.694 0.124 0.165 84.820 o
-2 9 7 0.947 1.838 0.134 39.533 o
-2 9 8 0.019 0.103 0.165 210.304 o
-2 9 9 0.035 0.289 0.207 123.710 o
-2 9 10 0.115 0.093 0.176 163.374 o
-2 10 -1 2.992 3.521 0.134 11.838 o
-2 10 0 0.312 0.589 0.217 76.361 o
-2 10 1 3.613 3.314 0.134 10.184 o
-2 10 2 0.054 0.062 0.207 138.817 o
-2 10 3 3.010 3.603 0.145 11.570 o
-2 10 4 3.070 5.699 0.227 8.205 o
-2 10 5 2.061 2.509 0.207 18.160 o
-2 10 6 6.079 7.104 0.454 3.572 o
-2 10 7 1.066 1.859 0.186 33.542 o
-2 10 8 1.401 0.898 0.093 42.320 o
-2 10 9 0.404 0.392 0.237 69.218 o
-2 10 10 0.063 0.134 0.176 171.605 o
-2 11 -1 2.993 2.478 0.145 13.878 o
-2 11 0 13.073 15.570 1.260 0.838 o
-2 11 1 3.958 4.213 0.361 7.240 o
-2 11 2 3.420 3.707 0.155 10.081 o
-2 11 3 0.039 0.207 0.114 308.734 o
-2 11 4 0.208 0.310 0.155 141.865 o
-2 11 5 0.103 0.847 0.186 96.700 o
-2 11 6 0.009 0.114 0.165 212.177 o
-2 11 7 0.625 0.330 0.124 96.335 o
-2 11 8 0.163 0.186 0.134 196.565 o
-2 11 9 0.224 0.485 0.207 91.405 o
-2 12 -1 1.931 2.323 0.124 21.533 o
-2 12 0 0.111 0.403 0.124 190.700 o
-2 12 1 0.068 0.052 0.165 201.380 o
-2 12 2 3.982 4.460 0.134 7.960 o
-2 12 3 1.905 3.221 0.176 17.403 o
-2 12 4 0.421 0.434 0.186 86.603 o
-2 12 5 2.063 3.531 0.258 14.351 o
-2 12 6 0.291 0.661 0.103 128.903 o
-2 12 7 1.265 0.971 0.124 43.233 o
-2 12 8 0.123 0.289 0.176 140.149 o
-2 12 9 0.512 0.299 0.124 112.226 o
-2 13 -1 0.264 0.279 0.124 162.368 o
-2 13 0 1.532 1.373 0.124 32.738 o
-2 13 1 0.413 0.423 0.114 122.981 o
-2 13 2 0.000 0.031 0.114 479.152 o
-2 13 3 0.003 0.062 0.196 163.419 o
-2 13 4 1.215 2.323 0.134 29.735 o
-2 13 5 0.031 0.103 0.165 205.385 o
-2 13 6 0.019 0.114 0.176 187.543 o
-2 13 7 0.013 0.227 0.124 288.443 o
-2 13 8 0.651 1.022 0.165 59.728 o
-2 14 -1 1.311 1.828 0.134 32.208 o
-2 14 0 0.113 0.196 0.145 196.323 o
-2 14 1 0.314 0.578 0.124 120.903 o
-2 14 2 1.064 1.714 0.114 39.408 o
-2 14 3 1.259 1.301 0.124 39.109 o
-2 14 4 0.567 1.156 0.103 71.364 o
-2 14 5 0.127 0.062 0.165 179.747 o
-2 14 6 0.064 0.145 0.145 227.695 o
-2 15 -1 0.225 0.021 0.083 312.846 o
-2 15 0 0.407 0.465 0.134 110.305 o
-2 15 1 0.293 0.361 0.124 145.154 o
-2 15 2 0.201 0.465 0.134 145.603 o
-2 15 3 0.279 0.630 0.124 122.450 o
-2 15 4 0.011 0.052 0.155 252.831 o
-2 15 5 0.157 0.320 0.114 203.205 o
-2 16 -1 0.291 0.496 0.114 138.881 o
-2 16 0 0.039 0.145 0.176 176.669 o
-2 16 1 0.169 0.310 0.145 161.557 o
-2 16 2 0.136 0.196 0.145 188.005 o
-1 0 1 619.994 693.562 4.636 0.001 o
-1 0 3 7.546 7.444 0.207 3.029 o
-1 0 5 100.939 116.891 0.867 0.022 o
-1 0 7 1.788 2.199 0.155 22.845 o
-1 0 9 3.083 3.015 0.196 11.980 o
-1 0 11 0.000 0.165 0.196 152.518 o
-1 0 13 0.143 0.330 0.176 132.761 o
-1 1 0 805.968 709.865 29.716 0.000 o
-1 1 1 324.991 336.869 6.371 0.002 o
-1 1 2 321.626 324.623 6.856 0.002 o
-1 1 3 17.571 16.500 0.279 0.705 o
-1 1 4 60.913 69.829 0.589 0.058 o
-1 1 5 24.713 24.491 0.310 0.363 o
-1 1 6 59.801 62.663 0.940 0.064 o
-1 1 7 41.853 43.469 3.500 0.105 o
-1 1 8 8.086 8.095 0.155 2.697 o
-1 1 9 0.456 0.599 0.134 96.352 o
-1 1 10 0.545 0.681 0.114 89.818 o
-1 1 11 1.346 1.549 0.124 34.564 o
-1 1 12 0.684 0.754 0.124 73.290 o
-1 1 13 0.046 0.052 0.165 209.930 o
-1 2 0 81.631 81.300 5.854 0.031 o
-1 2 1 2.744 3.387 0.093 13.303 o
-1 2 2 46.897 51.182 1.497 0.097 o
-1 2 3 3.566 2.932 0.207 10.473 o
-1 2 4 70.722 88.239 4.502 0.036 o
-1 2 5 9.545 9.840 0.155 1.996 o
-1 2 6 17.081 19.639 0.444 0.647 o
-1 2 7 5.214 4.254 0.434 5.311 o
-1 2 8 2.495 2.695 0.217 14.919 o
-1 2 9 8.149 8.570 0.640 2.248 o
-1 2 10 1.306 1.177 0.186 35.423 o
-1 2 11 0.501 0.774 0.114 89.614 o
-1 2 12 0.055 0.155 0.176 170.789 o
-1 3 0 337.130 322.197 5.947 0.002 o
-1 3 1 239.576 238.646 4.522 0.004 o
-1 3 2 72.417 76.416 2.395 0.043 o
-1 3 3 173.569 195.775 3.645 0.007 o
-1 3 4 32.432 37.697 0.403 0.195 o
-1 3 5 41.539 51.450 0.847 0.115 o
-1 3 6 29.736 28.301 1.125 0.251 o
-1 3 7 6.522 6.247 0.578 3.334 o
-1 3 8 10.396 8.993 0.382 1.834 o
-1 3 9 0.113 0.196 0.114 257.335 o
-1 3 10 0.279 0.465 0.114 144.749 o
-1 3 11 0.170 0.176 0.145 180.503 o
-1 3 12 0.095 0.207 0.134 220.193 o
-1 4 0 0.229 0.413 0.062 210.479 o
-1 4 1 5.004 4.987 0.093 5.999 o
-1 4 2 36.646 46.463 1.425 0.139 o
-1 4 3 3.195 6.949 0.114 7.178 o
-1 4 4 19.531 15.415 0.351 0.637 o
-1 4 5 4.273 5.163 0.093 6.910 o
-1 4 6 0.176 0.103 0.155 174.885 o
-1 4 7 1.803 3.046 0.506 11.426 o
-1 4 8 19.509 19.742 2.643 0.352 o
-1 4 9 4.297 4.657 0.341 6.515 o
-1 4 10 5.850 6.577 0.186 4.286 o
-1 4 11 0.514 0.268 0.134 109.100 o
-1 4 12 0.001 0.134 0.155 236.008 o
-1 5 0 3.208 2.901 0.124 12.243 o
-1 5 1 0.057 0.093 0.093 447.755 o
-1 5 2 103.620 108.848 3.469 0.021 o
-1 5 3 63.096 75.384 1.507 0.052 o
-1 5 4 45.767 55.601 0.527 0.097 o
-1 5 5 0.078 0.155 0.103 330.995 o
-1 5 6 0.259 0.299 0.093 192.586 o
-1 5 7 12.676 12.318 0.764 1.135 o
-1 5 8 0.048 2.426 1.797 1.993 o
-1 5 9 0.805 0.258 0.145 77.454 o
-1 5 10 0.310 0.103 0.165 132.733 o
-1 5 11 0.027 0.237 0.155 202.352 o
-1 5 12 0.011 0.093 0.186 174.304 o
-1 6 0 42.906 44.863 2.375 0.111 o
-1 6 1 32.556 38.472 1.301 0.183 o
-1 6 2 11.520 15.292 0.403 1.186 o
-1 6 3 0.028 0.991 0.681 13.281 o
-1 6 4 0.955 0.506 0.093 68.928 o
-1 6 5 13.312 12.235 0.237 1.181 o
-1 6 6 7.153 10.656 0.671 2.205 o
-1 6 7 3.250 4.254 0.145 9.843 o
-1 6 8 4.878 7.021 0.227 4.853 o
-1 6 9 9.150 10.397 0.289 1.988 o
-1 6 10 1.907 1.549 0.134 25.619 o
-1 6 11 0.403 0.475 0.134 110.130 o
-1 6 12 0.414 0.330 0.145 113.035 o
-1 7 0 5.417 4.584 0.248 5.488 o
-1 7 1 0.116 0.124 0.124 253.926 o
-1 7 2 5.864 9.365 0.279 3.319 o
-1 7 3 22.840 27.331 0.609 0.366 o
-1 7 4 2.149 1.817 0.103 22.200 o
-1 7 5 0.042 0.124 0.145 244.521 o
-1 7 6 1.884 3.005 0.103 19.348 o
-1 7 7 4.493 6.526 0.268 5.390 o
-1 7 8 1.591 0.991 0.093 36.554 o
-1 7 9 0.059 0.000 0.041 1282.130 o
-1 7 10 0.093 0.072 0.196 143.159 o
-1 7 11 0.859 0.909 0.196 48.974 o
-1 8 0 2.727 3.500 0.351 10.699 o
-1 8 1 57.391 64.026 3.397 0.060 o
-1 8 2 6.437 7.352 0.268 3.562 o
-1 8 3 1.386 2.220 0.093 29.163 o
-1 8 4 5.054 5.710 0.134 5.466 o
-1 8 5 12.029 15.942 0.547 1.077 o
-1 8 6 1.827 1.022 0.103 31.399 o
-1 8 7 5.331 8.209 0.237 4.016 o
-1 8 8 1.623 2.746 0.279 18.523 o
-1 8 9 0.964 1.187 0.227 38.765 o
-1 8 10 0.612 0.496 0.124 89.359 o
-1 8 11 0.725 0.681 0.124 72.933 o
-1 9 0 21.921 25.627 1.146 0.379 o
-1 9 1 1.757 0.950 0.155 31.182 o
-1 9 2 0.076 0.196 0.114 282.573 o
-1 9 3 3.901 3.459 0.103 9.328 o
-1 9 4 0.011 0.176 0.176 180.377 o
-1 9 5 1.721 3.263 0.145 19.031 o
-1 9 6 6.426 7.641 0.310 3.445 o
-1 9 7 0.384 0.485 0.093 133.082 o
-1 9 8 1.182 1.456 0.103 40.203 o
-1 9 9 0.219 0.010 0.083 323.459 o
-1 9 10 0.690 1.043 0.124 64.210 o
-1 9 11 0.071 0.196 0.196 135.999 o
-1 10 0 24.866 28.074 1.766 0.287 o
-1 10 1 2.421 3.624 0.103 14.176 o
-1 10 2 12.729 14.744 0.568 1.064 o
-1 10 3 0.002 0.248 0.155 210.130 o
-1 10 4 3.255 4.822 0.155 9.070 o
-1 10 5 1.758 1.920 0.237 21.973 o
-1 10 6 5.264 7.641 0.413 3.974 o
-1 10 7 0.269 0.207 0.145 149.633 o
-1 10 8 0.125 0.237 0.114 237.914 o
-1 10 9 0.002 0.041 0.124 396.413 o
-1 10 10 0.059 0.186 0.134 243.606 o
-1 11 0 0.458 0.227 0.134 120.063 o
-1 11 1 2.461 2.767 0.114 16.151 o
-1 11 2 12.812 13.226 0.413 1.157 o
-1 11 3 0.003 0.052 0.186 182.597 o
-1 11 4 10.465 12.566 0.774 1.362 o
-1 11 5 1.245 1.962 0.114 33.006 o
-1 11 6 0.585 0.898 0.093 81.351 o
-1 11 7 1.740 2.117 0.103 24.945 o
-1 11 8 0.018 0.021 0.072 958.379 o
-1 11 9 0.004 0.227 0.124 295.887 o
-1 12 0 0.072 0.361 0.093 274.806 o
-1 12 1 6.409 7.413 0.124 3.672 o
-1 12 2 0.020 0.021 0.093 636.479 o
-1 12 3 0.074 0.083 0.196 145.882 o
-1 12 4 0.022 0.083 0.155 238.428 o
-1 12 5 2.010 3.056 0.124 17.990 o
-1 12 6 0.152 0.114 0.176 152.267 o
-1 12 7 0.039 0.103 0.165 202.390 o
-1 12 8 0.250 0.196 0.124 178.642 o
-1 12 9 0.161 0.423 0.103 194.818 o
-1 13 0 0.476 0.444 0.093 120.330 o
-1 13 1 3.514 3.552 0.227 9.631 o
-1 13 2 0.018 0.062 0.134 316.876 o
-1 13 3 11.992 14.352 0.723 1.114 o
-1 13 4 0.012 0.114 0.186 171.346 o
-1 13 5 2.532 3.046 0.134 14.817 o
-1 13 6 0.181 0.423 0.134 155.074 o
-1 13 7 0.000 0.114 0.165 215.902 o
-1 13 8 0.037 0.093 0.155 228.608 o
-1 14 0 0.121 0.207 0.134 208.963 o
-1 14 1 0.698 0.650 0.093 82.202 o
-1 14 2 0.326 0.372 0.103 151.919 o
-1 14 3 0.018 0.330 0.134 227.520 o
-1 14 4 0.109 0.361 0.134 184.464 o
-1 14 5 0.162 0.207 0.165 151.909 o
-1 14 6 0.017 0.155 0.176 181.550 o
-1 14 7 0.016 0.103 0.165 211.378 o
-1 15 0 0.031 0.134 0.165 199.594 o
-1 15 1 0.039 0.114 0.176 181.300 o
-1 15 2 3.099 4.264 0.114 10.377 o
-1 15 3 0.001 0.041 0.165 231.547 o
-1 15 4 2.505 3.129 0.145 14.653 o
-1 15 5 0.019 0.062 0.186 176.523 o
-1 16 0 0.637 0.702 0.103 83.106 o
-1 16 1 0.001 0.072 0.165 224.362 o
-1 16 2 0.423 0.620 0.114 106.928 o
-1 16 3 0.000 0.186 0.134 281.056 o
0 0 2 997.181 967.385 6.267 0.000 o
0 0 4 17.476 16.675 0.465 0.695 o
0 0 6 1.651 2.003 0.145 25.682 o
0 0 8 1.863 1.569 0.165 25.120 o
0 0 10 3.808 3.800 0.176 8.890 o
0 0 12 3.536 3.428 0.196 9.925 o
0 1 1 36.642 49.809 1.569 0.131 o
0 1 2 411.167 438.334 10.965 0.001 o
0 1 3 9.055 6.226 0.310 2.609 o
0 1 4 1.181 1.518 0.072 40.790 o
0 1 5 30.142 33.123 0.485 0.232 o
0 1 6 19.840 20.289 0.320 0.535 o
0 1 7 6.879 6.629 0.403 3.356 o
0 1 8 1.135 0.919 0.124 47.971 o
0 1 9 0.861 0.826 0.279 38.727 o
0 1 10 4.500 3.851 0.124 7.584 o
0 1 11 0.696 0.620 0.227 54.225 o
0 1 12 0.104 0.176 0.176 155.954 o
0 2 0 0.464 2.189 0.062 53.767 o
0 2 1 2033.830 2016.450 91.533 0.000 o
0 2 2 42.276 41.662 1.890 0.123 o
0 2 3 0.136 0.062 0.083 392.776 o
0 2 4 54.516 58.420 1.662 0.074 o
0 2 5 3.038 2.881 0.103 13.076 o
0 2 6 0.275 0.052 0.155 155.442 o
0 2 7 4.390 4.429 0.413 6.210 o
0 2 8 7.228 7.362 0.950 2.258 o
0 2 9 0.057 0.207 0.114 293.577 o
0 2 10 0.676 0.960 0.124 67.317 o
0 2 11 3.410 3.531 0.237 9.859 o
0 2 12 0.000 0.052 0.165 229.676 o
0 3 1 306.588 318.955 5.286 0.003 o
0 3 2 6.752 11.595 0.485 2.355 o
0 3 3 241.488 258.583 12.968 0.004 o
0 3 4 1.644 6.371 0.465 8.591 o
0 3 5 0.008 0.114 0.103 457.077 o
0 3 6 1.995 2.220 0.196 19.930 o
0 3 7 0.568 0.547 0.114 94.237 o
0 3 8 0.228 0.289 0.186 114.341 o
0 3 9 10.205 9.830 0.650 1.663 o
0 3 10 0.041 0.165 0.134 260.720 o
0 3 11 1.493 1.435 0.124 32.888 o
0 3 12 0.141 0.196 0.165 157.892 o
0 4 0 319.266 334.122 1.807 0.002 o
0 4 1 16.982 18.327 0.506 0.677 o
0 4 2 34.923 26.432 1.177 0.211 o
0 4 3 74.140 77.542 3.800 0.039 o
0 4 4 0.495 0.589 0.186 75.361 o
0 4 5 13.189 15.230 0.940 0.924 o
0 4 6 1.947 2.241 0.155 21.161 o
0 4 7 13.712 12.824 1.384 0.846 o
0 4 8 1.370 1.033 0.496 16.661 o
0 4 9 6.251 7.093 0.382 3.597 o
0 4 10 0.149 0.268 0.124 201.649 o
0 4 11 0.010 0.072 0.145 280.060 o
0 4 12 0.381 0.320 0.145 118.520 o
0 5 1 31.223 33.536 0.929 0.216 o
0 5 2 218.884 239.523 4.997 0.005 o
0 5 3 9.473 15.240 0.940 1.249 o
0 5 4 48.386 51.068 1.776 0.093 o
0 5 5 6.483 4.987 0.382 4.106 o
0 5 6 4.416 4.677 0.165 6.933 o
0 5 7 1.717 2.726 0.155 21.052 o
0 5 8 9.602 11.100 1.094 1.388 o
0 5 9 0.205 0.031 0.134 210.696 o
0 5 10 4.357 4.368 0.155 7.308 o
0 5 11 0.011 0.124 0.176 188.219 o
0 5 12 0.004 0.114 0.165 214.161 o
0 6 0 43.739 45.080 0.836 0.118 o
0 6 1 0.141 0.165 0.072 350.886 o
0 6 2 2.340 3.407 0.114 15.051 o
0 6 3 3.031 1.229 0.093 17.586 o
0 6 4 35.021 38.523 1.311 0.168 o
0 6 5 3.553 4.078 0.248 8.788 o
0 6 6 0.572 0.909 0.114 77.851 o
0 6 7 0.937 1.322 0.134 46.942 o
0 6 8 8.610 9.757 0.372 2.168 o
0 6 9 0.304 0.021 0.083 251.868 o
0 6 10 0.225 0.361 0.196 103.278 o
0 6 11 0.089 0.279 0.186 136.546 o
0 6 12 0.126 0.072 0.207 126.337 o
0 7 1 19.351 24.027 0.475 0.488 o
0 7 2 24.784 27.000 0.692 0.333 o
0 7 3 44.233 44.883 1.693 0.113 o
0 7 4 5.369 4.966 0.465 4.745 o
0 7 5 15.977 13.722 0.609 0.848 o
0 7 6 20.210 23.758 1.353 0.420 o
0 7 7 7.863 8.838 0.516 2.409 o
0 7 8 0.699 1.270 0.145 55.412 o
0 7 9 3.800 4.161 0.165 8.546 o
0 7 10 0.388 0.186 0.155 121.019 o
0 7 11 0.325 0.279 0.124 147.330 o
0 8 0 22.468 26.691 0.537 0.381 o
0 8 1 23.287 23.066 0.341 0.405 o
0 8 2 0.360 1.208 0.083 89.598 o
0 8 3 1.383 2.395 0.093 27.935 o
0 8 4 7.799 7.888 0.454 2.643 o
0 8 5 1.380 0.867 0.124 41.504 o
0 8 6 0.827 1.662 0.134 45.081 o
0 8 7 1.720 2.798 0.248 18.539 o
0 8 8 0.004 0.031 0.134 345.696 o
0 8 9 0.269 0.217 0.134 158.785 o
0 8 10 0.320 0.413 0.289 56.306 o
0 8 11 0.286 0.516 0.124 131.016 o
0 9 1 5.185 5.679 0.124 5.354 o
0 9 2 1.310 1.580 0.093 36.264 o
0 9 3 0.058 0.124 0.155 212.359 o
0 9 4 5.636 4.388 0.176 5.496 o
0 9 5 18.676 23.159 1.394 0.459 o
0 9 6 5.805 5.307 0.134 4.910 o
0 9 7 7.191 8.477 0.165 2.979 o
0 9 8 1.580 1.982 0.124 27.295 o
0 9 9 0.026 0.031 0.114 431.761 o
0 9 10 0.173 0.072 0.207 119.606 o
0 10 0 24.655 26.928 0.620 0.337 o
0 10 1 4.297 6.691 0.320 5.375 o
0 10 2 9.638 8.270 0.227 2.153 o
0 10 3 5.582 5.947 0.299 4.581 o
0 10 4 0.354 0.289 0.114 147.589 o
0 10 5 3.721 4.822 0.134 8.118 o
0 10 6 0.020 0.227 0.155 206.976 o
0 10 7 0.227 0.041 0.155 169.147 o
0 10 8 0.006 0.083 0.186 177.340 o
0 10 9 0.046 0.041 0.165 211.718 o
0 10 10 0.267 0.692 0.134 113.901 o
0 11 1 1.160 1.342 0.134 40.390 o
0 11 2 0.892 0.898 0.114 59.081 o
0 11 3 0.595 1.074 0.114 70.510 o
0 11 4 2.275 4.109 0.103 13.723 o
0 11 5 1.342 0.909 0.114 42.635 o
0 11 6 5.213 6.856 0.341 4.432 o
0 11 7 0.819 0.971 0.114 60.873 o
0 11 8 0.295 0.227 0.155 133.028 o
0 11 9 0.000 0.196 0.134 277.166 o
0 12 0 0.689 1.425 0.176 48.871 o
0 12 1 6.489 6.154 0.237 3.929 o
0 12 2 1.228 1.033 0.083 45.956 o
0 12 3 4.238 3.459 0.103 8.540 o
0 12 4 4.926 6.205 0.114 5.359 o
0 12 5 0.488 0.640 0.093 104.443 o
0 12 6 0.028 0.145 0.196 148.839 o
0 12 7 0.157 0.258 0.134 185.751 o
0 12 8 0.586 0.692 0.134 80.298 o
0 13 1 0.075 0.041 0.145 248.905 o
0 13 2 2.867 4.078 0.103 11.447 o
0 13 3 0.006 0.103 0.155 241.431 o
0 13 4 0.096 0.227 0.114 258.292 o
0 13 5 0.246 0.702 0.103 133.451 o
0 13 6 0.475 0.351 0.134 108.694 o
0 13 7 0.093 0.052 0.176 174.613 o
0 13 8 0.000 0.041 0.155 262.573 o
0 14 0 0.369 0.176 0.196 97.995 o
0 14 1 0.433 0.640 0.248 59.144 o
0 14 2 1.450 1.198 0.093 37.379 o
0 14 3 2.050 3.025 0.103 18.047 o
0 14 4 1.575 1.466 0.186 28.614 o
0 14 5 0.471 0.475 0.114 110.262 o
0 14 6 0.004 0.031 0.134 345.752 o
0 14 7 0.195 0.320 0.124 176.469 o
0 15 1 0.521 0.898 0.186 64.838 o
0 15 2 0.002 0.207 0.134 272.265 o
0 15 3 0.543 1.063 0.103 76.289 o
0 15 4 0.126 0.165 0.134 215.919 o
0 15 5 0.094 0.103 0.145 223.286 o
0 16 0 0.426 0.413 0.196 82.703 o
0 16 1 0.015 0.165 0.176 180.610 o
0 16 2 0.481 0.785 0.134 85.059 o
0 16 3 0.480 0.413 0.186 82.699 o
1 0 1 0.074 0.196 0.062 466.287 o
1 0 3 210.016 199.957 1.404 0.006 o
1 0 5 0.469 0.743 0.124 91.172 o
1 0 7 6.011 5.896 0.196 4.413 o
1 0 9 2.504 2.251 0.165 16.846 o
1 0 11 3.339 3.356 0.186 10.652 o
1 1 1 782.355 772.539 29.262 0.000 o
1 1 2 56.358 59.432 3.965 0.062 o
1 1 3 0.008 0.031 0.093 660.832 o
1 1 4 42.663 39.721 0.733 0.133 o
1 1 5 67.856 64.140 0.960 0.054 o
1 1 6 34.347 32.266 1.033 0.196 o
1 1 7 4.277 4.006 0.134 7.829 o
1 1 8 4.624 4.450 0.382 6.051 o
1 1 9 0.028 0.083 0.207 141.586 o
1 1 10 1.323 1.208 0.155 36.828 o
1 1 11 0.695 0.485 0.124 82.521 o
1 1 12 0.597 0.568 0.134 84.416 o
1 2 1 201.258 188.486 6.433 0.006 o
1 2 2 254.653 242.187 8.673 0.004 o
1 2 3 226.450 243.416 10.470 0.004 o
1 2 4 58.159 52.999 1.724 0.072 o
1 2 5 10.014 12.906 0.217 1.583 o
1 2 6 2.506 2.963 0.351 12.221 o
1 2 7 1.544 1.136 0.145 33.757 o
1 2 8 0.003 0.010 0.093 725.450 o
1 2 9 0.077 0.072 0.196 146.287 o
1 2 10 3.149 2.808 0.134 12.589 o
1 2 11 0.000 0.268 0.217 120.139 o
1 2 12 0.516 0.444 0.124 102.253 o
1 3 1 2.972 2.974 0.145 12.896 o
1 3 2 160.359 144.563 0.826 0.010 o
1 3 3 4.470 6.164 0.155 5.849 o
1 3 4 29.196 28.487 0.991 0.259 o
1 3 5 10.047 9.644 0.361 1.847 o
1 3 6 8.903 6.959 0.599 2.303 o
1 3 7 11.605 10.181 0.702 1.400 o
1 3 8 2.618 3.067 0.496 9.603 o
1 3 9 4.387 4.316 0.299 6.808 o
1 3 10 0.205 0.361 0.176 120.352 o
1 3 11 0.636 0.785 0.124 75.505 o
1 3 12 0.635 0.465 0.124 88.668 o
1 4 1 53.426 55.787 1.167 0.079 o
1 4 2 291.178 292.522 3.469 0.003 o
1 4 3 118.241 113.959 2.808 0.018 o
1 4 4 101.933 106.432 2.705 0.022 o
1 4 5 11.468 8.890 0.640 1.539 o
1 4 6 0.512 0.134 0.165 101.883 o
1 4 7 0.187 0.041 0.124 236.989 o
1 4 8 1.782 1.900 0.237 21.853 o
1 4 9 0.487 0.671 0.114 96.351 o
1 4 10 0.056 0.103 0.186 161.478 o
1 4 11 0.197 0.423 0.279 63.955 o
1 4 12 0.031 0.124 0.176 182.210 o
1 5 1 120.377 115.353 1.415 0.017 o
1 5 2 16.190 18.379 0.681 0.698 o
1 5 3 1.897 1.105 0.093 29.891 o
1 5 4 3.495 2.798 0.134 11.347 o
1 5 5 6.705 5.369 0.351 3.889 o
1 5 6 0.024 0.103 0.155 232.429 o
1 5 7 1.315 2.746 0.465 14.479 o
1 5 8 4.449 3.614 0.124 7.901 o
1 5 9 2.506 3.232 0.103 14.721 o
1 5 10 1.036 1.136 0.124 47.665 o
1 5 11 0.032 0.083 0.196 154.438 o
1 6 1 35.766 38.048 1.838 0.159 o
1 6 2 51.775 54.672 2.189 0.080 o
1 6 3 127.551 127.299 4.584 0.014 o
1 6 4 29.835 25.131 2.075 0.238 o
1 6 5 6.808 5.049 0.299 4.005 o
1 6 6 9.325 7.703 0.599 2.096 o
1 6 7 2.598 3.263 0.341 11.575 o
1 6 8 0.715 0.991 0.114 65.790 o
1 6 9 0.000 0.227 0.134 266.881 o
1 6 10 0.080 0.279 0.176 149.895 o
1 6 11 0.157 0.021 0.093 353.908 o
1 7 1 41.245 44.760 2.395 0.116 o
1 7 2 7.618 6.123 0.454 3.060 o
1 7 3 0.913 0.403 0.103 73.508 o
1 7 4 0.051 0.217 0.114 294.061 o
1 7 5 15.597 15.581 0.444 0.831 o
1 7 6 0.036 0.578 0.155 149.831 o
1 7 7 0.063 0.258 0.155 185.743 o
1 7 8 0.902 1.631 0.124 44.137 o
1 7 9 0.887 0.702 0.165 56.428 o
1 7 10 0.058 0.093 0.237 105.654 o
1 7 11 0.005 0.103 0.176 193.815 o
1 8 1 38.850 41.910 2.220 0.132 o
1 8 2 18.107 20.330 1.662 0.481 o
1 8 3 11.944 11.007 0.826 1.258 o
1 8 4 9.930 7.444 0.372 2.125 o
1 8 5 14.073 11.048 0.527 1.119 o
1 8 6 0.360 1.239 0.134 76.679 o
1 8 7 5.695 4.946 0.341 4.822 o
1 8 8 0.142 0.186 0.134 204.509 o
1 8 9 0.008 0.031 0.114 463.027 o
1 8 10 0.365 0.403 0.124 127.126 o
1 9 1 0.423 0.155 0.165 111.435 o
1 9 2 6.177 7.104 0.454 3.519 o
1 9 3 0.307 0.072 0.207 103.390 o
1 9 4 11.496 12.659 0.444 1.336 o
1 9 5 0.095 0.155 0.176 160.519 o
1 9 6 6.661 7.000 0.145 3.634 o
1 9 7 0.071 0.114 0.165 189.325 o
1 9 8 0.001 0.103 0.176 194.972 o
1 9 9 0.180 0.145 0.176 143.166 o
1 9 10 0.003 0.010 0.052 2105.750 o
1 10 1 0.340 0.743 0.114 109.851 o
1 10 2 1.503 1.487 0.196 28.981 o
1 10 3 0.180 0.217 0.145 171.013 o
1 10 4 1.277 0.857 0.134 43.737 o
1 10 5 0.008 0.454 0.114 242.888 o
1 10 6 5.947 4.966 0.207 4.848 o
1 10 7 0.037 0.361 0.237 95.030 o
1 10 8 0.818 0.723 0.196 53.609 o
1 10 9 0.135 0.268 0.124 207.441 o
1 11 1 6.468 8.064 0.547 3.006 o
1 11 2 0.095 0.465 0.134 172.743 o
1 11 3 0.286 0.599 0.103 135.787 o
1 11 4 0.200 0.186 0.124 197.892 o
1 11 5 4.535 5.627 0.145 6.122 o
1 11 6 0.115 0.176 0.134 218.543 o
1 11 7 0.523 0.382 0.124 105.164 o
1 11 8 1.363 1.270 0.155 35.383 o
1 11 9 0.002 0.103 0.176 194.832 o
1 12 1 0.421 0.392 0.114 124.168 o
1 12 2 0.849 1.580 0.114 47.351 o
1 12 3 0.861 1.353 0.155 46.886 o
1 12 4 0.295 1.074 0.103 98.417 o
1 12 5 0.427 0.310 0.207 82.187 o
1 12 6 0.039 0.083 0.176 186.020 o
1 12 7 1.316 1.291 0.124 37.912 o
1 12 8 0.115 0.155 0.186 143.276 o
1 13 1 0.189 0.444 0.114 170.603 o
1 13 2 0.129 0.145 0.176 153.931 o
1 13 3 0.002 0.052 0.176 204.022 o
1 13 4 0.198 0.537 0.124 146.728 o
1 13 5 0.025 0.083 0.227 119.159 o
1 13 6 0.154 0.207 0.165 153.693 o
1 13 7 0.786 0.847 0.155 59.353 o
1 14 1 0.005 0.093 0.186 176.152 o
1 14 2 0.863 1.497 0.114 48.256 o
1 14 3 0.466 0.991 0.124 80.504 o
1 14 4 0.362 0.620 0.176 88.011 o
1 14 5 0.021 0.114 0.186 169.097 o
1 14 6 0.162 0.372 0.258 74.944 o
1 15 1 0.067 0.227 0.114 278.183 o
1 15 2 0.105 0.237 0.134 209.219 o
1 15 3 0.010 0.062 0.186 179.000 o
1 15 4 0.045 0.124 0.176 177.997 o
1 15 5 0.084 0.093 0.186 156.376 o
1 16 1 0.143 0.145 0.196 128.371 o
1 16 2 0.003 0.083 0.217 133.309 o
1 16 3 0.234 0.516 0.217 84.269 o
2 0 2 9.796 12.524 0.289 1.639 o
2 0 4 98.748 97.222 1.177 0.025 o
2 0 6 106.518 95.518 1.415 0.023 o
2 0 8 5.858 4.966 0.227 4.897 o
2 0 10 0.215 0.000 0.114 254.948 o
2 0 12 0.001 0.186 0.186 164.812 o
2 1 2 33.818 33.330 2.643 0.166 o
2 1 3 15.060 12.845 0.558 0.951 o
2 1 4 81.082 73.298 2.798 0.037 o
2 1 5 11.545 9.065 0.145 1.662 o
2 1 6 0.630 0.702 0.103 83.674 o
2 1 7 0.331 0.382 0.124 135.141 o
2 1 8 2.291 1.569 0.134 21.501 o
2 1 9 0.297 0.785 0.237 64.820 o
2 1 10 0.046 0.155 0.145 233.999 o
2 1 11 0.536 0.506 0.134 92.914 o
2 1 12 0.184 0.248 0.196 115.004 o
2 2 2 103.449 99.080 4.460 0.022 o
2 2 3 2.124 2.230 0.083 20.796 o
2 2 4 7.215 8.095 0.527 2.737 o
2 2 5 92.634 86.484 4.657 0.027 o
2 2 6 0.052 0.165 0.165 187.177 o
2 2 7 24.904 20.526 1.704 0.341 o
2 2 8 0.535 0.558 0.145 87.054 o
2 2 9 0.061 1.600 1.063 5.560 o
2 2 10 0.261 0.279 0.176 118.223 o
2 2 11 0.023 0.145 0.207 137.060 o
2 3 2 1.513 1.693 0.083 31.607 o
2 3 3 136.671 130.840 7.372 0.012 o
2 3 4 0.053 0.114 0.155 216.940 o
2 3 5 17.691 15.756 0.909 0.664 o
2 3 6 2.996 2.075 0.114 15.106 o
2 3 7 7.682 6.866 0.237 3.079 o
2 3 8 2.037 2.003 0.114 22.215 o
2 3 9 3.102 2.189 0.589 8.305 o
2 3 10 0.437 0.620 0.124 101.254 o
2 3 11 0.005 0.103 0.196 158.160 o
2 4 2 4.414 4.873 0.176 6.760 o
2 4 3 51.493 49.901 0.640 0.090 o
2 4 4 10.018 9.169 0.341 1.912 o
2 4 5 0.430 0.134 0.155 118.564 o
2 4 6 15.333 11.502 0.888 0.917 o
2 4 7 0.078 0.145 0.176 166.004 o
2 4 8 1.522 0.620 0.114 41.690 o
2 4 9 1.213 0.888 0.145 44.278 o
2 4 10 0.024 0.021 0.114 444.179 o
2 4 11 0.008 0.124 0.186 171.077 o
2 5 2 55.788 54.981 2.602 0.071 o
2 5 3 6.343 5.617 0.114 4.337 o
2 5 4 41.020 37.532 1.982 0.134 o
2 5 5 0.586 4.915 3.562 0.510 o
2 5 6 0.895 1.239 0.124 50.742 o
2 5 7 2.707 2.333 0.465 10.725 o
2 5 8 8.276 7.248 0.258 2.738 o
2 5 9 0.486 0.578 0.093 108.873 o
2 5 10 0.943 0.723 0.103 62.121 o
2 5 11 0.058 0.114 0.165 193.742 o
2 6 2 58.255 55.188 0.681 0.072 o
2 6 3 0.000 0.093 0.155 247.545 o
2 6 4 0.461 0.650 0.103 103.916 o
2 6 5 0.000 0.031 0.134 349.561 o
2 6 6 4.044 3.314 0.279 8.377 o
2 6 7 0.147 0.186 0.155 171.388 o
2 6 8 0.073 0.186 0.155 194.806 o
2 6 9 0.402 0.207 0.145 124.079 o
2 6 10 0.411 0.330 0.134 119.327 o
2 6 11 0.189 0.196 0.176 136.527 o
2 7 2 2.379 2.013 0.196 17.896 o
2 7 3 23.776 22.994 0.805 0.383 o
2 7 4 7.739 7.403 0.155 2.979 o
2 7 5 1.564 0.816 0.207 32.603 o
2 7 6 0.004 0.134 0.196 154.974 o
2 7 7 2.326 2.932 0.207 15.327 o
2 7 8 0.613 0.475 0.114 93.364 o
2 7 9 1.673 1.600 0.165 27.248 o
2 7 10 0.229 0.227 0.145 156.828 o
2 8 2 1.421 1.218 0.237 29.694 o
2 8 3 0.495 0.578 0.114 100.681 o
2 8 4 1.390 1.342 0.124 35.764 o
2 8 5 6.306 6.391 0.320 3.865 o
2 8 6 2.376 2.922 0.124 16.096 o
2 8 7 1.985 1.580 0.114 25.017 o
2 8 8 0.071 0.134 0.196 141.486 o
2 8 9 0.071 0.196 0.186 147.904 o
2 8 10 0.539 0.423 0.134 96.875 o
2 9 2 6.711 6.164 0.145 3.862 o
2 9 3 0.879 1.229 0.124 51.538 o
2 9 4 0.804 0.537 0.124 72.519 o
2 9 5 1.958 2.096 0.114 22.530 o
2 9 6 0.012 0.114 0.165 210.821 o
2 9 7 0.108 0.134 0.186 146.722 o
2 9 8 0.049 0.248 0.165 175.320 o
2 9 9 0.040 0.093 0.196 151.616 o
2 10 2 0.969 0.888 0.124 54.709 o
2 10 3 1.163 1.043 0.134 44.317 o
2 10 4 4.732 5.090 0.134 6.235 o
2 10 5 1.819 1.962 0.124 24.494 o
2 10 6 3.833 3.696 0.134 9.108 o
2 10 7 0.249 0.310 0.134 152.236 o
2 10 8 0.403 0.299 0.145 116.838 o
2 10 9 0.500 0.454 0.134 99.414 o
2 11 2 0.972 0.774 0.103 59.381 o
2 11 3 0.030 0.176 0.134 264.322 o
2 11 4 1.126 1.507 0.165 37.157 o
2 11 5 0.000 0.103 0.176 195.453 o
2 11 6 0.072 0.186 0.186 148.751 o
2 11 7 0.542 0.392 0.134 98.246 o
2 11 8 0.004 0.021 0.114 481.910 o
2 12 2 4.600 5.307 0.134 6.265 o
2 12 3 3.544 4.130 0.134 9.283 o
2 12 4 0.217 0.248 0.124 181.052 o
2 12 5 1.701 2.127 0.207 22.579 o
2 12 6 0.170 0.217 0.186 128.084 o
2 12 7 0.571 0.372 0.134 96.154 o
2 12 8 0.129 0.289 0.176 138.876 o
2 13 2 0.001 0.103 0.165 217.735 o
2 13 3 0.051 0.155 0.165 189.374 o
2 13 4 0.387 0.774 0.124 98.064 o
2 13 5 0.058 0.041 0.165 207.284 o
2 13 6 0.232 0.268 0.134 161.724 o
2 13 7 0.002 0.041 0.145 297.909 o
2 14 2 1.911 2.272 0.134 21.760 o
2 14 3 1.506 1.890 0.134 28.642 o
2 14 4 0.532 0.733 0.134 82.903 o
2 14 5 0.085 0.041 0.155 218.478 o
2 15 2 0.079 0.165 0.155 196.427 o
2 15 3 0.166 0.465 0.114 174.252 o
2 15 4 0.003 0.052 0.176 203.720 o
3 0 3 14.434 13.598 0.382 0.994 o
3 0 5 39.779 33.856 0.898 0.159 o
3 0 7 0.140 0.299 0.207 109.352 o
3 0 9 1.604 0.434 0.186 36.912 o
3 0 11 0.012 0.052 0.207 147.435 o
3 1 3 0.696 0.454 0.093 91.478 o
3 1 4 14.873 14.218 0.671 0.896 o
3 1 5 11.471 10.036 0.299 1.564 o
3 1 6 9.616 7.775 0.155 2.248 o
3 1 7 8.441 6.133 0.165 2.946 o
3 1 8 0.188 0.103 0.196 124.549 o
3 1 9 0.054 0.093 0.165 198.933 o
3 1 10 0.867 0.712 0.124 63.593 o
3 1 11 0.609 0.454 0.237 58.427 o
3 2 3 1.275 1.342 0.268 28.813 o
3 2 4 24.510 21.518 0.578 0.391 o
3 2 5 0.014 0.052 0.176 199.761 o
3 2 6 4.093 3.717 0.196 8.278 o
3 2 7 3.181 2.994 0.145 12.045 o
3 2 8 1.782 0.867 0.114 33.202 o
3 2 9 1.948 1.662 0.145 24.228 o
3 2 10 0.526 0.310 0.237 65.201 o
3 2 11 0.014 0.010 0.052 1735.490 o
3 3 3 30.198 29.354 1.559 0.231 o
3 3 4 1.046 0.836 0.176 46.884 o
3 3 5 6.919 6.546 0.268 3.518 o
3 3 6 13.157 10.335 0.661 1.218 o
3 3 7 0.118 0.083 0.145 217.152 o
3 3 8 2.827 1.817 0.217 15.468 o
3 3 9 0.172 0.320 0.124 183.791 o
3 3 10 0.147 0.041 0.165 176.982 o
3 3 11 0.197 0.196 0.155 156.948 o
3 4 3 0.029 0.165 0.145 240.106 o
3 4 4 0.390 0.176 0.124 144.432 o
3 4 5 0.287 0.268 0.114 167.583 o
3 4 6 1.212 1.549 0.186 33.690 o
3 4 7 1.642 1.476 0.124 30.046 o
3 4 8 6.735 5.452 0.176 4.062 o
3 4 9 1.572 0.960 0.124 35.953 o
3 4 10 0.919 0.681 0.134 60.178 o
3 4 11 0.098 0.021 0.093 439.312 o
3 5 3 13.323 12.256 0.320 1.169 o
3 5 4 10.488 8.487 0.754 1.669 o
3 5 5 1.493 1.239 0.124 34.721 o
3 5 6 0.114 0.155 0.186 143.508 o
3 5 7 6.416 4.471 0.207 4.653 o
3 5 8 0.130 0.207 0.176 146.964 o
3 5 9 0.390 0.341 0.134 121.791 o
3 5 10 0.044 0.052 0.176 189.401 o
3 6 3 0.167 0.186 0.124 211.485 o
3 6 4 4.625 4.357 0.310 6.402 o
3 6 5 0.787 0.743 0.134 65.406 o
3 6 6 5.022 5.111 0.268 5.583 o
3 6 7 2.676 2.189 0.145 16.267 o
3 6 8 1.867 1.797 0.248 21.213 o
3 6 9 2.537 1.879 0.134 18.289 o
3 6 10 0.394 0.217 0.155 117.793 o
3 7 3 8.551 6.629 0.310 2.718 o
3 7 4 0.102 0.145 0.196 135.052 o
3 7 5 0.046 0.403 0.124 217.169 o
3 7 6 1.962 1.755 0.114 24.279 o
3 7 7 1.065 0.991 0.155 46.157 o
3 7 8 1.008 0.733 0.217 44.378 o
3 7 9 0.172 0.134 0.207 115.626 o
3 7 10 0.067 0.217 0.176 159.807 o
3 8 3 2.303 2.612 0.134 17.389 o
3 8 4 2.045 2.179 0.134 20.973 o
3 8 5 10.348 9.933 0.237 1.792 o
3 8 6 0.180 0.227 0.114 213.365 o
3 8 7 2.332 2.726 0.237 15.343 o
3 8 8 0.793 0.558 0.186 59.940 o
3 8 9 0.214 0.485 0.165 117.433 o
3 9 3 2.041 1.797 0.145 22.577 o
3 9 4 0.080 0.196 0.165 174.017 o
3 9 5 0.694 0.826 0.114 72.195 o
3 9 6 1.428 1.528 0.124 33.220 o
3 9 7 0.173 0.165 0.155 166.872 o
3 9 8 0.022 0.052 0.165 219.594 o
3 9 9 0.077 0.237 0.134 221.387 o
3 10 3 0.607 0.795 0.114 79.565 o
3 10 4 4.563 5.142 0.134 6.431 o
3 10 5 1.143 1.322 0.124 41.753 o
3 10 6 2.537 2.819 0.237 14.127 o
3 10 7 0.068 0.207 0.155 192.943 o
3 10 8 0.019 0.083 0.227 119.988 o
3 11 3 0.038 0.041 0.134 307.749 o
3 11 4 3.312 3.211 0.258 10.406 o
3 11 5 0.280 0.361 0.124 148.253 o
3 11 6 0.017 0.124 0.207 139.883 o
3 11 7 0.241 0.196 0.145 157.670 o
3 12 3 0.023 0.217 0.134 255.894 o
3 12 4 0.183 0.330 0.124 178.459 o
3 12 5 0.990 1.074 0.124 50.318 o
3 12 6 0.132 0.237 0.165 155.200 o
3 12 7 0.002 0.021 0.083 879.488 o
3 13 3 5.286 5.441 0.155 5.335 o
3 13 4 0.002 0.052 0.176 203.805 o
3 13 5 0.366 0.217 0.155 121.929 o
3 13 6 0.047 0.124 0.186 161.316 o
3 14 3 0.019 0.072 0.217 131.685 o
3 14 4 0.018 0.155 0.145 249.225 o
3 15 3 0.000 0.062 0.196 164.145 o
4 0 4 6.725 4.471 0.186 4.425 o
4 0 6 0.352 0.661 0.196 79.064 o
4 0 8 0.008 0.165 0.196 150.747 o
4 0 10 1.117 0.836 0.186 43.674 o
4 1 4 0.001 0.052 0.176 204.409 o
4 1 5 3.729 3.232 0.320 8.848 o
4 1 6 1.396 1.033 0.134 38.446 o
4 1 7 0.105 0.145 0.186 146.307 o
4 1 8 0.736 0.485 0.114 81.611 o
4 1 9 0.667 0.444 0.124 86.695 o
4 1 10 0.875 0.568 0.134 65.372 o
4 2 4 1.674 0.981 0.114 34.165 o
4 2 5 1.766 1.518 0.124 27.927 o
4 2 6 1.609 1.229 0.248 26.613 o
4 2 7 0.071 0.124 0.186 155.816 o
4 2 8 2.016 1.580 0.124 24.429 o
4 2 9 0.208 0.279 0.145 155.534 o
4 2 10 0.080 0.454 0.330 51.633 o
4 3 4 1.615 1.621 0.320 21.176 o
4 3 5 0.017 0.041 0.176 200.442 o
4 3 6 0.045 0.072 0.196 152.797 o
4 3 7 0.206 0.165 0.165 146.834 o
4 3 8 0.048 0.114 0.186 162.327 o
4 3 9 1.513 0.971 0.124 37.090 o
4 3 10 0.103 0.062 0.207 130.618 o
4 4 4 0.061 0.124 0.196 144.453 o
4 4 5 0.004 0.114 0.176 192.439 o
4 4 6 0.145 0.227 0.155 166.249 o
4 4 7 5.211 4.099 0.134 6.257 o
4 4 8 0.102 0.031 0.114 332.421 o
4 4 9 1.127 0.898 0.124 48.598 o
4 4 10 0.085 0.083 0.237 103.472 o
4 5 4 9.720 9.241 0.774 1.723 o
4 5 5 1.276 1.270 0.382 22.059 o
4 5 6 0.608 0.702 0.124 80.738 o
4 5 7 0.409 0.434 0.114 122.653 o
4 5 8 1.138 0.733 0.124 51.110 o
4 5 9 0.027 0.114 0.196 152.269 o
4 6 4 3.293 1.910 0.134 13.889 o
4 6 5 1.098 0.743 0.134 51.349 o
4 6 6 1.166 1.311 0.114 41.933 o
4 6 7 0.285 0.330 0.124 150.584 o
4 6 8 1.945 1.848 0.134 23.518 o
4 6 9 0.051 0.124 0.207 133.993 o
4 7 4 2.402 2.323 0.114 17.933 o
4 7 5 3.222 2.561 0.237 11.909 o
4 7 6 3.763 3.108 0.351 8.665 o
4 7 7 0.925 0.764 0.124 59.383 o
4 7 8 0.004 0.083 0.237 111.971 o
4 7 9 0.310 0.114 0.227 88.785 o
4 8 4 3.538 2.695 0.124 11.430 o
4 8 5 0.231 0.134 0.145 168.394 o
4 8 6 0.431 0.372 0.134 113.341 o
4 8 7 0.347 0.392 0.134 124.678 o
4 8 8 0.008 0.031 0.134 340.990 o
4 9 4 2.066 1.600 0.186 22.241 o
4 9 5 4.762 4.543 0.145 6.557 o
4 9 6 1.122 0.826 0.196 42.585 o
4 9 7 0.768 0.702 0.134 67.655 o
4 9 8 0.173 0.103 0.217 109.051 o
4 10 4 0.091 0.083 0.217 120.399 o
4 10 5 0.979 0.805 0.258 39.051 o
4 10 6 0.068 0.072 0.217 124.314 o
4 10 7 0.049 0.052 0.186 169.842 o
4 11 4 1.017 1.239 0.155 43.936 o
4 11 5 0.526 0.392 0.258 57.657 o
4 11 6 0.932 1.074 0.258 37.294 o
4 12 4 0.988 0.805 0.124 55.638 o
4 12 5 0.007 0.134 0.186 169.904 o
4 13 4 0.000 0.114 0.207 143.771 o
5 0 5 0.223 0.196 0.176 130.549 o
5 0 7 0.054 0.114 0.227 113.732 o
5 0 9 0.659 0.413 0.196 67.747 o
5 1 5 8.244 3.851 0.217 3.579 o
5 1 6 4.708 2.736 0.248 7.813 o
5 1 7 0.340 0.217 0.134 142.384 o
5 1 8 0.331 0.361 0.134 130.068 o
5 1 9 0.013 0.114 0.186 171.233 o
5 2 5 0.018 0.093 0.217 130.195 o
5 2 6 0.036 0.176 0.165 190.912 o
5 2 7 0.640 0.258 0.134 94.936 o
5 2 8 0.063 0.124 0.207 132.001 o
5 2 9 0.049 0.227 0.165 178.467 o
5 3 5 3.046 2.333 0.196 13.468 o
5 3 6 0.569 0.289 0.145 96.792 o
5 3 7 1.454 1.002 0.176 34.954 o
5 3 8 0.308 0.207 0.155 132.629 o
5 3 9 0.291 0.330 0.145 132.680 o
5 4 5 0.744 0.578 0.114 77.369 o
5 4 6 0.973 0.454 0.124 64.829 o
5 4 7 0.001 0.207 0.145 244.366 o
5 4 8 0.503 0.186 0.207 81.188 o
5 4 9 0.026 0.083 0.227 119.007 o
5 5 5 0.239 0.052 0.155 164.630 o
5 5 6 0.094 0.072 0.207 131.261 o
5 5 7 0.231 0.403 0.134 145.809 o
5 5 8 0.549 0.372 0.134 98.548 o
5 6 5 0.012 0.155 0.155 226.099 o
5 6 6 0.325 0.299 0.134 136.933 o
5 6 7 0.790 0.485 0.176 64.013 o
5 6 8 0.004 0.186 0.207 136.770 o
5 7 5 1.930 0.940 0.196 26.945 o
5 7 6 0.029 0.072 0.207 142.302 o
5 7 7 0.004 0.093 0.196 159.612 o
5 7 8 0.061 0.289 0.145 198.147 o
5 8 5 0.852 0.578 0.124 68.204 o
5 8 6 0.143 0.196 0.196 124.328 o
5 8 7 0.165 0.165 0.207 114.501 o
5 9 5 0.006 0.041 0.155 258.705 o
5 9 6 0.829 0.692 0.134 64.492 o
5 9 7 0.026 0.062 0.155 241.895 o
5 10 5 0.010 0.176 0.207 136.466 o
5 10 6 0.509 0.392 0.165 89.220 o
5 11 5 0.888 0.712 0.165 56.141 o
6 0 6 4.948 2.364 0.186 7.962 o
6 0 8 0.024 0.052 0.217 132.520 o
6 1 6 0.000 0.227 0.134 266.926 o
6 1 7 0.048 0.176 0.155 206.220 o
6 1 8 0.172 0.052 0.176 154.676 o
6 2 6 0.076 0.010 0.052 889.471 o
6 2 7 0.870 0.506 0.134 67.398 o
6 2 8 0.002 0.227 0.155 214.291 o
6 3 6 0.460 0.423 0.134 106.034 o
6 3 7 1.032 0.372 0.134 62.258 o
6 4 6 0.947 0.527 0.134 62.633 o
6 4 7 0.061 0.041 0.134 289.244 o
6 5 6 0.649 0.289 0.145 88.872 o
6 5 7 0.236 0.093 0.248 84.010 o
6 6 6 0.463 0.176 0.207 84.566 o
6 6 7 0.054 0.268 0.176 156.800 o
6 7 6 0.000 0.031 0.134 349.483 o
6 8 6 0.070 0.176 0.176 164.151 o
;
_iucr_refine_instructions_details
;
TITL ethox
CELL 0.71068 4.633 8.4 6.577 90 100.37 90
ZERR 4 0.005 0.001 0.003 0 0.06 0
LATT 1
SYMM 0.5+X,0.5-Y,0.5+Z
SFAC C H O
UNIT 8 16 4

L.S. 10
PLAN  10
CONF
BOND $H
LIST 6
fmap 2
acta
MORE -1
WGHT 0.16236 0.087462
FVAR 0.983612
REM <olex2.extras>
REM <HklSrc "%.\\epoxide.hkl">
REM </olex2.extras>

O1    3     0.11704  0.83094  0.12415  11.00000  0.02905  0.02905  0.02905 =
 -0.00000  0.00523 -0.00000
C2    1     0.14829  0.93849  0.29574  11.00000  0.02803  0.02803  0.02803 =
 -0.00000  0.00505 -0.00000
AFIX 23
H2a   2     0.25706  0.90192  0.42738  11.00000 -1.20000
H2b   2     0.16962  1.05092  0.26817  11.00000 -1.20000
AFIX 0
C3    1    -0.13483  0.86437  0.21845  11.00000  0.03178  0.03178  0.03178 =
 -0.00000  0.00572 -0.00000
AFIX 23
H3a   2    -0.28898  0.93061  0.14249  11.00000 -1.20000
H3b   2    -0.20150  0.78153  0.30178  11.00000 -1.20000
AFIX 0
HKLF 4

END
Q1 1 0.066667 0.833333 0.083333 11 0.05 1.07

  REM The information below was added by Olex2.
  REM
  REM R1 = 0.0945 for 1306 Fo > 4sig(Fo) and 0.1249 for all 2081 data
  REM 28 parameters refined using 0 restraints
  REM Highest difference peak 1.0679, deepest hole -1.1675
  REM Mean Shift 4.6416, Max Shift -16.1162.

  REM +++ Tabular Listing of Refinement Information +++
  REM R1_all = 0.1249
  REM R1_gt = 0.0945
  REM wR_ref = 0.3130
  REM GOOF = 1.0353
  REM Shift_max = -16.1162
  REM Shift_mean = 4.6416
  REM Reflections_all = 2081
  REM Reflections_gt = 1306
  REM Parameters = 28
  REM Hole = -1.1675
  REM Peak = 1.0679
  REM Flack = n/a

  
;
_olex2_submission_special_instructions  'No special instructions were received'
