
# fabricated and distorted water cif file for test purposes

data_test

_cell_length_a                    10.000(3)
_cell_length_b                    10.000(2)
_cell_length_c                    10.000(2)
_cell_angle_alpha                 90
_cell_angle_beta                  90
_cell_angle_gamma                 90

loop_
    _atom_site_label
    _atom_site_type_symbol
    _atom_site_fract_x
    _atom_site_fract_y
    _atom_site_fract_z
    H1  H  0.0791(3)  0.0612(3)  0.0020(3)
    O1  O  0.0000(3)  0.0000(3)  0.0080(3)
    H2  H -0.0791(3)  0.0612(3)  0.0020(3)

loop_
    _atom_site_aniso_label
    _atom_site_aniso_type_symbol
    _atom_site_aniso_U_11
    _atom_site_aniso_U_22
    _atom_site_aniso_U_33
    _atom_site_aniso_U_12
    _atom_site_aniso_U_13
    _atom_site_aniso_U_23
    H1  H  0.020(3)   0.020(5)  0.020(6)   -0.000(4)  -0.000(5)  -0.004(4)
    O1  O  0.0220(4)  0.030(4)  0.0224(3)   0.0041(3) -0.0001(5) -0.0042(4)
    H2  H  0.025(4)   0.025(5)  0.0254(13)  0.002(8)  -0.004(4)   0.0014(12)

