data_epoxide
_space_group_crystal_system        'monoclinic'
_space_group_IT_number             14
_space_group_name_H-M_alt          'P 1 21/n 1'
_space_group_name_Hall             '-P 2yn'
loop_
  _space_group_symop_id
  _space_group_symop_operation_xyz
 1 x,y,z
 2 -x+1/2,y+1/2,-z+1/2
 3 -x,-y,-z
 4 x-1/2,-y-1/2,z-1/2

_symmetry_Int_Tables_number        14
_cell_length_a                     4.633(5)
_cell_length_b                     8.400(1)
_cell_length_c                     6.577(3)
_cell_angle_alpha                  90
_cell_angle_beta                   100.37(6)
_cell_angle_gamma                  90
_cell_volume                       251.8(3)
_cell_formula_units_Z              4

loop_
  _atom_site_label
  _atom_site_type_symbol
  _atom_site_fract_x
  _atom_site_fract_y
  _atom_site_fract_z
  _atom_site_U_iso_or_equiv
  _atom_site_adp_type
  _atom_site_occupancy
  _atom_site_refinement_flags_posn
 O1 O 0.11695(8) 0.83089(4) 0.12414(5) 0.02991(9) Uani 1.000000 .
 C2 C 0.14821(11) 0.93865(5) 0.29604(7) 0.02872(9) Uani 1.000000 .
 H2a H 0.2647(19) 0.8954(9) 0.4252(13) 0.044(2) Uani 1.000000 .
 H2b H 0.1687(17) 1.0519(10) 0.2642(13) 0.040(2) Uani 1.000000 .
 C3 C -0.13423(12) 0.86480(7) 0.21838(8) 0.03260(10) Uani 1.000000 .
 H3a H -0.290(2) 0.9225(10) 0.1317(15) 0.053(2) Uani 1.000000 .
 H3b H -0.194(2) 0.7769(11) 0.2931(15) 0.052(2) Uani 1.000000 .

loop_
  _atom_site_aniso_label
  _atom_site_aniso_U_11
  _atom_site_aniso_U_22
  _atom_site_aniso_U_33
  _atom_site_aniso_U_12
  _atom_site_aniso_U_13
  _atom_site_aniso_U_23
 O1 0.03468(17) 0.02661(14) 0.03017(15) 0.00253(11) 0.01047(12) -0.00491(11)
 C2 0.0338(2) 0.02523(16) 0.02727(17) 0.00077(14) 0.00579(14) -0.00242(13)
 C3 0.0317(2) 0.0340(2) 0.0345(2) -0.00306(16) 0.01249(17) 0.00005(16)
