data_epoxide
_audit_creation_date               2023-10-31
_audit_creation_method
;
Olex2 1.5-dev
(compiled 2023.10.17 svn.r61beb6c5 for OlexSys, GUI svn.r6849)
;
_audit_contact_author_address      ?
_audit_contact_author_email        ?
_audit_contact_author_name         ''
_audit_contact_author_phone        ?
_publ_contact_author_id_orcid      ?
_publ_section_references
;
Bourhis, L.J., Dolomanov, O.V., Gildea, R.J., Howard, J.A.K., Puschmann, H.
 (2015). Acta Cryst. A71, 59-75.

Dolomanov, O.V., Bourhis, L.J., Gildea, R.J, Howard, J.A.K. & Puschmann, H.
 (2009), J. Appl. Cryst. 42, 339-341.
;
_chemical_formula_moiety           'C2 H4 O'
_chemical_formula_sum              'C2 H4 O'
_chemical_formula_weight           44.053
loop_
  _atom_type_symbol
  _atom_type_scat_dispersion_real
  _atom_type_scat_dispersion_imag
  _atom_type_scat_Cromer_Mann_a1
  _atom_type_scat_Cromer_Mann_a2
  _atom_type_scat_Cromer_Mann_a3
  _atom_type_scat_Cromer_Mann_a4
  _atom_type_scat_Cromer_Mann_b1
  _atom_type_scat_Cromer_Mann_b2
  _atom_type_scat_Cromer_Mann_b3
  _atom_type_scat_Cromer_Mann_b4
  _atom_type_scat_Cromer_Mann_c
  _atom_type_scat_source
  _atom_type_scat_dispersion_source
 C 0.00313 0.00162 2.31000 1.02000 1.58860 0.86500 20.84390 10.20750 0.56870
 51.65120 0.21560 'International Tables Volume C Table 6.1.1.4 (pp. 500-502)'
 'Brennan, Cowan, Rev. Sci. Instrum., 1992, 63, 850'
 H 0.00000 0.00000 0.49300 0.32291 0.14019 0.04081 10.51090 26.12570 3.14236
 57.79970 0.00304 'International Tables Volume C Table 6.1.1.4 (pp. 500-502)'
 'Brennan, Cowan, Rev. Sci. Instrum., 1992, 63, 850'
 O 0.01085 0.00610 3.04850 2.28680 1.54630 0.86700 13.27710 5.70110 0.32390
 32.90890 0.25080 'International Tables Volume C Table 6.1.1.4 (pp. 500-502)'
 'Brennan, Cowan, Rev. Sci. Instrum., 1992, 63, 850'

_space_group_crystal_system        'monoclinic'
_space_group_IT_number             14
_space_group_name_H-M_alt          'P 1 21/n 1'
_space_group_name_Hall             '-P 2yn'
loop_
  _space_group_symop_id
  _space_group_symop_operation_xyz
 1 x,y,z
 2 -x+1/2,y+1/2,-z+1/2
 3 -x,-y,-z
 4 x-1/2,-y-1/2,z-1/2

_symmetry_Int_Tables_number        14
_cell_length_a                     4.633(5)
_cell_length_b                     8.400(1)
_cell_length_c                     6.577(3)
_cell_angle_alpha                  90
_cell_angle_beta                   100.37(6)
_cell_angle_gamma                  90
_cell_volume                       251.8(3)
_cell_formula_units_Z              4
_exptl_absorpt_coefficient_mu      0.092
_exptl_crystal_density_diffrn      1.162
_exptl_crystal_F_000               96.074
_diffrn_reflns_av_R_equivalents    0.0000
_diffrn_reflns_av_unetI/netI       0.0400
_diffrn_reflns_Laue_measured_fraction_full  1.0000
_diffrn_reflns_Laue_measured_fraction_max  1.0000
_diffrn_reflns_limit_h_max         6
_diffrn_reflns_limit_h_min         -9
_diffrn_reflns_limit_k_max         16
_diffrn_reflns_limit_k_min         0
_diffrn_reflns_limit_l_max         13
_diffrn_reflns_limit_l_min         -6
_diffrn_reflns_number              2081
_diffrn_reflns_point_group_measured_fraction_full  1.0000
_diffrn_reflns_point_group_measured_fraction_max  1.0000
_diffrn_reflns_theta_full          25.2398
_diffrn_reflns_theta_max           45.00
_diffrn_reflns_theta_min           3.98
_diffrn_measured_fraction_theta_full  1.0000
_diffrn_measured_fraction_theta_max  1.0000
_diffrn_radiation_type             'Mo K\a'
_diffrn_radiation_wavelength       0.71068
_reflns_Friedel_coverage           0.0
_reflns_limit_h_max                6
_reflns_limit_h_min                -9
_reflns_limit_k_max                16
_reflns_limit_k_min                0
_reflns_limit_l_max                13
_reflns_limit_l_min                -6
_reflns_number_gt                  1306
_reflns_number_total               2081
_reflns_threshold_expression       I>=2u(I)
_computing_molecular_graphics      'Olex2 1.5-dev (Dolomanov et al., 2009)'
_computing_publication_material    'Olex2 1.5-dev (Dolomanov et al., 2009)'
_computing_structure_refinement    'olex2.refine 1.5-dev (Bourhis et al., 2015)'
_refine_diff_density_max           0.1951
_refine_diff_density_min           -0.2971
_refine_diff_density_rms           0.0579
_refine_ls_d_res_high              0.5026
_refine_ls_d_res_low               5.1256
_refine_ls_goodness_of_fit_ref     0.9063
_refine_ls_hydrogen_treatment      refall
_refine_ls_matrix_type             full
_refine_ls_number_constraints      0
_refine_ls_number_parameters       64
_refine_ls_number_reflns           2081
_refine_ls_number_restraints       0
_refine_ls_R_factor_all            0.0652
_refine_ls_R_factor_gt             0.0352
_refine_ls_restrained_S_all        0.9063
_refine_ls_shift/su_max            5.5826
_refine_ls_shift/su_mean           1.0135
_refine_ls_structure_factor_coef   Fsqd
_refine_ls_weighting_details
 'w=1/[\s^2^(Fo^2^)+(0.0412P)^2^+0.0089P] where P=(Fo^2^+2Fc^2^)/3'
_refine_ls_weighting_scheme        calc
_refine_ls_wR_factor_gt            0.0888
_refine_ls_wR_factor_ref           0.0977
_olex2_refinement_description
;
;
loop_
  _atom_site_label
  _atom_site_type_symbol
  _atom_site_fract_x
  _atom_site_fract_y
  _atom_site_fract_z
  _atom_site_U_iso_or_equiv
  _atom_site_adp_type
  _atom_site_occupancy
  _atom_site_refinement_flags_posn
 O1 O 0.11695(8) 0.83089(4) 0.12414(5) 0.02991(9) Uani 1.000000 .
 C2 C 0.14821(11) 0.93865(5) 0.29604(7) 0.02872(9) Uani 1.000000 .
 H2a H 0.2647(19) 0.8954(9) 0.4252(13) 0.044(2) Uani 1.000000 .
 H2b H 0.1687(17) 1.0519(10) 0.2642(13) 0.040(2) Uani 1.000000 .
 C3 C -0.13423(12) 0.86480(7) 0.21838(8) 0.03260(10) Uani 1.000000 .
 H3a H -0.290(2) 0.9225(10) 0.1317(15) 0.053(2) Uani 1.000000 .
 H3b H -0.194(2) 0.7769(11) 0.2931(15) 0.052(2) Uani 1.000000 .

loop_
  _atom_site_aniso_label
  _atom_site_aniso_U_11
  _atom_site_aniso_U_22
  _atom_site_aniso_U_33
  _atom_site_aniso_U_12
  _atom_site_aniso_U_13
  _atom_site_aniso_U_23
 O1 0.03468(17) 0.02661(14) 0.03017(15) 0.00253(11) 0.01047(12) -0.00491(11)
 C2 0.0338(2) 0.02523(16) 0.02727(17) 0.00077(14) 0.00579(14) -0.00242(13)
 H2a 0.044(5) 0.044(5) 0.044(5) -0.000(5) 0.008(4) -0.000(5)
 H2b 0.040(5) 0.040(5) 0.040(5) -0.000(4) 0.007(4) -0.000(4)
 C3 0.0317(2) 0.0340(2) 0.0345(2) -0.00306(16) 0.01249(17) 0.00005(16)
 H3a 0.053(6) 0.053(6) 0.053(6) -0.000(5) 0.009(5) -0.000(5)
 H3b 0.052(6) 0.052(6) 0.052(6) -0.000(5) 0.009(5) -0.000(6)

loop_
  _geom_bond_atom_site_label_1
  _geom_bond_atom_site_label_2
  _geom_bond_distance
  _geom_bond_site_symmetry_2
  _geom_bond_publ_flag
 O1 C2 1.4352(7) . ?
 O1 C3 1.4420(14) . ?
 C2 H2a 0.990(8) . ?
 C2 H2b 0.982(9) . ?
 C2 C3 1.4551(15) . ?
 C3 H3a 0.965(10) . ?
 C3 H3b 0.955(9) . ?

loop_
  _geom_angle_atom_site_label_1
  _geom_angle_atom_site_label_2
  _geom_angle_atom_site_label_3
  _geom_angle
  _geom_angle_site_symmetry_1
  _geom_angle_site_symmetry_3
  _geom_angle_publ_flag
 C3 O1 C2 60.76(3) . . ?
 H2a C2 O1 114.0(5) . . ?
 H2b C2 O1 116.3(5) . . ?
 H2b C2 H2a 118.7(7) . . ?
 C3 C2 O1 59.85(3) . . ?
 C3 C2 H2a 117.5(5) . . ?
 C3 C2 H2b 117.0(5) . . ?
 C2 C3 O1 59.39(3) . . ?
 H3a C3 O1 114.8(6) . . ?
 H3a C3 C2 121.5(6) . . ?
 H3b C3 O1 113.6(5) . . ?
 H3b C3 C2 118.4(6) . . ?
 H3b C3 H3a 115.9(8) . . ?

loop_
  _diffrn_refln_index_h
  _diffrn_refln_index_k
  _diffrn_refln_index_l
  _diffrn_refln_intensity_net
  _diffrn_refln_intensity_u
 -9 0 1 0.15 0.23
 -9 0 3 0.03 0.17
 -9 0 5 0.25 0.2
 -9 1 0 0.08 0.19
 -9 1 1 0.07 0.21
 -9 1 2 0.03 0.14
 -9 1 3 0.19 0.16
 -9 1 4 0.2 0.19
 -9 2 0 0.09 0.23
 -9 2 1 0.04 0.15
 -9 2 2 0.13 0.2
 -9 2 3 0.17 0.2
 -9 2 4 0.09 0.2
 -9 3 1 0.07 0.22
 -9 3 2 0.01 0.07
 -9 3 3 0.06 0.2
 -8 0 -4 0.12 0.25
 -8 0 -2 0.07 0.26
 -8 0 0 1.97 0.18
 -8 0 2 3.41 0.2
 -8 0 4 0.43 0.17
 -8 0 6 0.64 0.18
 -8 0 8 1.3 0.2
 -8 1 -4 0.17 0.2
 -8 1 -3 0.13 0.2
 -8 1 -2 0.16 0.18
 -8 1 -1 0.13 0.19
 -8 1 0 0.02 0.11
 -8 1 1 0.2 0.14
 -8 1 2 0.57 0.18
 -8 1 3 0.47 0.35
 -8 1 4 0.44 0.21
 -8 1 5 0.14 0.2
 -8 1 6 0.14 0.17
 -8 1 7 0.13 0.2
 -8 1 8 0.05 0.19
 -8 2 -4 0.2 0.2
 -8 2 -3 0.18 0.16
 -8 2 -2 0.06 0.2
 -8 2 -1 0.44 0.13
 -8 2 0 0.02 0.1
 -8 2 1 2.53 0.69
 -8 2 2 0.11 0.2
 -8 2 3 1.05 0.34
 -8 2 4 0.63 0.12
 -8 2 5 0.35 0.21
 -8 2 6 0.22 0.14
 -8 2 7 0.97 0.13
 -8 2 8 0.01 0.05
 -8 3 -3 0.37 0.24
 -8 3 -2 0.15 0.21
 -8 3 -1 0.91 0.14
 -8 3 0 0.33 0.13
 -8 3 1 0.06 0.2
 -8 3 2 0.16 0.19
 -8 3 3 0.84 0.33
 -8 3 4 0.24 0.18
 -8 3 5 0.04 0.17
 -8 3 6 0.14 0.17
 -8 3 7 0.05 0.18
 -8 3 8 0.12 0.22
 -8 4 -3 0.09 0.23
 -8 4 -2 0.07 0.21
 -8 4 -1 0.1 0.21
 -8 4 0 0.65 0.2
 -8 4 1 0.09 0.19
 -8 4 2 0.65 0.12
 -8 4 3 0.28 0.13
 -8 4 4 0.1 0.2
 -8 4 5 1.13 0.23
 -8 4 6 0.25 0.14
 -8 4 7 0.04 0.16
 -8 5 -3 0.11 0.19
 -8 5 -2 0.74 0.19
 -8 5 -1 0.1 0.16
 -8 5 0 0.64 0.32
 -8 5 1 0.16 0.2
 -8 5 2 0.1 0.24
 -8 5 3 0.07 0.21
 -8 5 4 0.36 0.13
 -8 5 5 0.06 0.2
 -8 5 6 0.16 0.2
 -8 5 7 0.22 0.19
 -8 6 -2 0.18 0.16
 -8 6 -1 0.02 0.12
 -8 6 0 0.24 0.18
 -8 6 1 0.16 0.21
 -8 6 2 0.22 0.19
 -8 6 3 0.24 0.19
 -8 6 4 0.59 0.14
 -8 6 5 0.23 0.15
 -8 6 6 0.1 0.21
 -8 7 -1 0.47 0.13
 -8 7 0 0.06 0.2
 -8 7 1 0.22 0.19
 -8 7 2 0.61 0.13
 -8 7 3 0.2 0.15
 -8 7 4 0.1 0.18
 -8 7 5 0.07 0.22
 -8 8 1 0.28 0.14
 -8 8 2 0.13 0.2
 -8 8 3 0.13 0.2
 -7 0 -5 0.57 0.18
 -7 0 -3 0.6 0.16
 -7 0 -1 0.12 0.21
 -7 0 1 0.09 0.26
 -7 0 3 4.36 0.19
 -7 0 5 0.91 0.17
 -7 0 7 0.63 0.19
 -7 0 9 0.12 0.24
 -7 1 -6 0.05 0.18
 -7 1 -5 0.23 0.25
 -7 1 -4 0.17 0.18
 -7 1 -3 0.1 0.16
 -7 1 -2 0.55 0.12
 -7 1 -1 0.51 0.12
 -7 1 0 3.92 0.89
 -7 1 1 5.59 1.1
 -7 1 2 5.81 0.92
 -7 1 3 2.1 0.22
 -7 1 4 0.55 0.16
 -7 1 5 0.68 0.12
 -7 1 6 0.22 0.12
 -7 1 7 0.52 0.12
 -7 1 8 0.09 0.2
 -7 1 9 0.01 0.07
 -7 1 10 0.2 0.17
 -7 2 -6 0.16 0.16
 -7 2 -5 0.31 0.24
 -7 2 -4 0.43 0.18
 -7 2 -3 0.08 0.18
 -7 2 -2 0.05 0.17
 -7 2 -1 0.47 0.18
 -7 2 0 0.03 0.11
 -7 2 1 0.13 0.19
 -7 2 2 1.64 0.23
 -7 2 3 1.86 0.37
 -7 2 4 3.36 0.22
 -7 2 5 1.43 0.12
 -7 2 6 0.07 0.2
 -7 2 7 0.06 0.19
 -7 2 8 0.1 0.17
 -7 2 9 0.06 0.2
 -7 2 10 0.27 0.16
 -7 3 -6 0.21 0.15
 -7 3 -5 0.03 0.13
 -7 3 -4 0.11 0.21
 -7 3 -3 0.42 0.14
 -7 3 -2 0.17 0.13
 -7 3 -1 1.79 0.12
 -7 3 0 0.89 0.21
 -7 3 1 2.6 0.47
 -7 3 2 2.33 0.42
 -7 3 3 1.2 0.12
 -7 3 4 0.37 0.21
 -7 3 5 0.41 0.19
 -7 3 6 1.55 0.13
 -7 3 7 0.1 0.17
 -7 3 8 0.15 0.2
 -7 3 9 0.28 0.19
 -7 4 -6 0.11 0.3
 -7 4 -5 0.13 0.2
 -7 4 -4 0.06 0.19
 -7 4 -3 0.04 0.16
 -7 4 -2 0.57 0.19
 -7 4 -1 0.2 0.15
 -7 4 0 0.69 0.12
 -7 4 1 0.42 0.12
 -7 4 2 1.19 0.12
 -7 4 3 2.73 0.2
 -7 4 4 5.26 0.79
 -7 4 5 1.47 0.19
 -7 4 6 0.6 0.12
 -7 4 7 0.1 0.2
 -7 4 8 0.07 0.21
 -7 4 9 0.38 0.13
 -7 5 -5 0.05 0.18
 -7 5 -4 0.1 0.18
 -7 5 -3 0.04 0.15
 -7 5 -2 0.77 0.25
 -7 5 -1 0.13 0.18
 -7 5 0 0.37 0.12
 -7 5 1 0.39 0.13
 -7 5 2 0.13 0.19
 -7 5 3 0.06 0.18
 -7 5 4 0.37 0.12
 -7 5 5 1.49 0.13
 -7 5 6 0.51 0.14
 -7 5 7 0.25 0.14
 -7 5 8 0.4 0.28
 -7 5 9 0.34 0.13
 -7 6 -5 0.1 0.25
 -7 6 -4 0.2 0.16
 -7 6 -3 0.01 0.09
 -7 6 -2 0.11 0.18
 -7 6 -1 0.59 0.16
 -7 6 0 0.17 0.18
 -7 6 1 0.13 0.18
 -7 6 2 0.89 0.33
 -7 6 3 3.37 0.14
 -7 6 4 1.47 0.13
 -7 6 5 1.62 0.13
 -7 6 6 1.5 0.22
 -7 6 7 0.17 0.16
 -7 6 8 1.07 0.13
 -7 7 -4 0.37 0.28
 -7 7 -3 0.15 0.21
 -7 7 -2 0.1 0.18
 -7 7 -1 0.15 0.16
 -7 7 0 0.11 0.21
 -7 7 1 0.63 0.12
 -7 7 2 0.13 0.18
 -7 7 3 0.12 0.18
 -7 7 4 0.24 0.18
 -7 7 5 0.59 0.12
 -7 7 6 0.21 0.18
 -7 7 7 0.04 0.16
 -7 7 8 0.2 0.19
 -7 8 -3 0.53 0.13
 -7 8 -2 0.18 0.16
 -7 8 -1 0.04 0.13
 -7 8 0 0.02 0.11
 -7 8 1 0.35 0.13
 -7 8 2 0.66 0.17
 -7 8 3 0.23 0.21
 -7 8 4 0.85 0.12
 -7 8 5 0.81 0.12
 -7 8 6 0.18 0.15
 -7 8 7 1.86 0.13
 -7 9 -2 0.14 0.21
 -7 9 -1 0.15 0.21
 -7 9 0 0.57 0.3
 -7 9 1 0.14 0.17
 -7 9 2 0.84 0.12
 -7 9 3 0.06 0.2
 -7 9 4 0.1 0.24
 -7 9 5 0.03 0.11
 -7 9 6 0.47 0.13
 -7 10 -1 0.13 0.2
 -7 10 0 0.16 0.2
 -7 10 1 0.14 0.2
 -7 10 2 0.19 0.2
 -7 10 3 0.29 0.19
 -7 10 4 0.02 0.12
 -7 10 5 0.06 0.18
 -6 0 -4 4.01 0.19
 -6 0 -2 0.82 0.19
 -6 0 0 2.3 0.21
 -6 0 2 8.73 0.24
 -6 0 4 0.57 0.18
 -6 0 6 19.43 0.53
 -6 0 8 7.64 0.21
 -6 0 10 0.22 0.2
 -6 1 -5 0.55 0.13
 -6 1 -4 1.65 0.11
 -6 1 -3 1.11 0.11
 -6 1 -2 0.99 0.1
 -6 1 -1 0.01 0.09
 -6 1 0 0.68 0.18
 -6 1 1 1.23 0.21
 -6 1 2 0.24 0.22
 -6 1 3 0.11 0.21
 -6 1 4 9.23 0.49
 -6 1 5 0.69 0.19
 -6 1 6 1.2 0.14
 -6 1 7 0.28 0.12
 -6 1 8 0.82 0.12
 -6 1 9 0.22 0.13
 -6 1 10 0.04 0.15
 -6 1 11 0.25 0.12
 -6 2 -5 2.61 0.43
 -6 2 -4 0.1 0.2
 -6 2 -3 1.48 0.21
 -6 2 -2 2.77 0.12
 -6 2 -1 0.41 0.27
 -6 2 0 2.07 0.26
 -6 2 1 4.22 0.21
 -6 2 2 0.39 0.13
 -6 2 3 1.78 0.13
 -6 2 4 0.28 0.14
 -6 2 5 7.72 0.61
 -6 2 6 0.19 0.12
 -6 2 7 11.46 0.4
 -6 2 8 0.2 0.15
 -6 2 9 0.94 0.12
 -6 2 10 0.66 0.15
 -6 2 11 0.22 0.17
 -6 3 -5 0.07 0.14
 -6 3 -4 0.25 0.13
 -6 3 -3 2.5 0.12
 -6 3 -2 0.03 0.14
 -6 3 -1 0.14 0.21
 -6 3 0 0.11 0.18
 -6 3 1 0.23 0.13
 -6 3 2 0.09 0.19
 -6 3 3 14.93 0.27
 -6 3 4 0.46 0.19
 -6 3 5 13.21 0.69
 -6 3 6 0.16 0.17
 -6 3 7 0.05 0.17
 -6 3 8 0.09 0.17
 -6 3 9 0.83 0.12
 -6 3 10 0.14 0.21
 -6 3 11 0.16 0.18
 -6 4 -5 0.09 0.15
 -6 4 -4 0.54 0.12
 -6 4 -3 2.13 0.12
 -6 4 -2 0.02 0.11
 -6 4 -1 6.29 0.17
 -6 4 0 0.25 0.18
 -6 4 1 0.16 0.19
 -6 4 2 1.01 0.13
 -6 4 3 2.21 0.27
 -6 4 4 0.68 0.11
 -6 4 5 0.17 0.16
 -6 4 6 3.8 0.48
 -6 4 7 0.3 0.12
 -6 4 8 1.06 0.11
 -6 4 9 0.8 0.32
 -6 4 10 0.13 0.19
 -6 5 -5 0.07 0.21
 -6 5 -4 0.47 0.11
 -6 5 -3 0.1 0.18
 -6 5 -2 1.17 0.12
 -6 5 -1 0.23 0.12
 -6 5 0 0.68 0.12
 -6 5 1 1.57 0.12
 -6 5 2 7.12 0.14
 -6 5 3 0.16 0.16
 -6 5 4 18.49 0.37
 -6 5 5 0.53 0.11
 -6 5 6 3.37 0.13
 -6 5 7 0.18 0.14
 -6 5 8 0.54 0.12
 -6 5 9 0.63 0.18
 -6 5 10 0.22 0.15
 -6 6 -5 0.16 0.19
 -6 6 -4 0.03 0.11
 -6 6 -3 0.03 0.12
 -6 6 -2 2.67 0.13
 -6 6 -1 0.15 0.15
 -6 6 0 1.22 0.12
 -6 6 1 0.02 0.09
 -6 6 2 1.37 0.12
 -6 6 3 0.24 0.12
 -6 6 4 0.19 0.17
 -6 6 5 0.35 0.12
 -6 6 6 1.76 0.12
 -6 6 7 0.11 0.18
 -6 6 8 0.19 0.18
 -6 6 9 0.11 0.16
 -6 6 10 0.63 0.13
 -6 7 -5 0.07 0.22
 -6 7 -4 0.42 0.19
 -6 7 -3 0.19 0.14
 -6 7 -2 0.77 0.51
 -6 7 -1 0.68 0.12
 -6 7 0 3.11 0.25
 -6 7 1 2.82 0.3
 -6 7 2 2.3 0.12
 -6 7 3 8.14 0.51
 -6 7 4 0.14 0.14
 -6 7 5 4.12 0.13
 -6 7 6 0.22 0.17
 -6 7 7 0.04 0.17
 -6 7 8 1.24 0.12
 -6 7 9 0.05 0.16
 -6 8 -5 0.43 0.13
 -6 8 -4 0.19 0.15
 -6 8 -3 0.01 0.05
 -6 8 -2 0.12 0.18
 -6 8 -1 0.3 0.14
 -6 8 0 0.03 0.14
 -6 8 1 0.37 0.13
 -6 8 2 0.86 0.17
 -6 8 3 0.47 0.12
 -6 8 4 0.32 0.12
 -6 8 5 1.14 0.13
 -6 8 6 0.52 0.12
 -6 8 7 1.32 0.13
 -6 8 8 0.3 0.14
 -6 8 9 0.16 0.18
 -6 9 -5 0.29 0.14
 -6 9 -4 0.04 0.17
 -6 9 -3 0.47 0.19
 -6 9 -2 0.17 0.15
 -6 9 -1 0.69 0.27
 -6 9 0 0.89 0.27
 -6 9 1 3.3 0.44
 -6 9 2 2.1 0.28
 -6 9 3 0.3 0.12
 -6 9 4 1.14 0.12
 -6 9 5 0.08 0.17
 -6 9 6 0.14 0.18
 -6 9 7 0.9 0.18
 -6 9 8 0.15 0.15
 -6 10 -4 0.32 0.14
 -6 10 -3 0.08 0.23
 -6 10 -2 0.17 0.16
 -6 10 -1 0.2 0.19
 -6 10 0 0.3 0.13
 -6 10 1 0.16 0.15
 -6 10 2 0.2 0.14
 -6 10 3 0.86 0.12
 -6 10 4 0.31 0.13
 -6 10 5 0.19 0.19
 -6 10 6 1.23 0.18
 -6 10 7 0.52 0.13
 -6 11 -3 0.13 0.21
 -6 11 -2 0.19 0.2
 -6 11 -1 0.17 0.2
 -6 11 0 0.9 0.12
 -6 11 1 0.74 0.36
 -6 11 2 0.23 0.15
 -6 11 3 0.07 0.2
 -6 11 4 0.14 0.21
 -6 11 5 0.21 0.17
 -6 11 6 0.51 0.35
 -6 12 -1 0.47 0.15
 -6 12 0 0.1 0.25
 -6 12 1 0.21 0.15
 -6 12 2 0.42 0.13
 -6 12 3 0.09 0.2
 -6 12 4 0.13 0.19
 -5 0 -3 6.71 0.22
 -5 0 -1 0.31 0.16
 -5 0 1 20.22 0.5
 -5 0 3 2.22 0.15
 -5 0 5 11.4 0.28
 -5 0 7 0.76 0.19
 -5 0 9 2.28 0.17
 -5 0 11 0.07 0.24
 -5 1 -4 6.96 0.16
 -5 1 -3 1.32 0.19
 -5 1 -2 0.2 0.17
 -5 1 -1 8.74 0.16
 -5 1 0 6.37 0.91
 -5 1 1 7.77 0.34
 -5 1 2 4.09 0.12
 -5 1 3 0.3 0.19
 -5 1 4 7.86 0.15
 -5 1 5 6.09 0.17
 -5 1 6 21 0.41
 -5 1 7 19.23 0.34
 -5 1 8 7.66 0.38
 -5 1 9 1.79 0.13
 -5 1 10 0.1 0.18
 -5 1 11 0.34 0.13
 -5 1 12 0.22 0.13
 -5 2 -4 3.11 0.31
 -5 2 -3 6.11 0.43
 -5 2 -2 7.2 0.64
 -5 2 -1 6.3 0.2
 -5 2 0 0.97 0.1
 -5 2 1 0.19 0.12
 -5 2 2 6.37 0.14
 -5 2 3 0.82 0.11
 -5 2 4 4.24 0.13
 -5 2 5 3.34 0.13
 -5 2 6 4.71 0.15
 -5 2 7 0.11 0.17
 -5 2 8 0.97 0.14
 -5 2 9 2.41 0.12
 -5 2 10 1.06 0.12
 -5 2 11 0.61 0.13
 -5 3 -4 1.51 0.14
 -5 3 -3 2.39 0.36
 -5 3 -2 4.17 0.31
 -5 3 -1 0.05 0.18
 -5 3 0 14.22 0.35
 -5 3 1 2.56 0.21
 -5 3 2 0.28 0.11
 -5 3 3 12.76 0.24
 -5 3 4 2.3 0.12
 -5 3 5 15.48 0.3
 -5 3 6 6.92 0.58
 -5 3 7 5.44 0.18
 -5 3 8 5.3 0.2
 -5 3 9 0.67 0.22
 -5 3 10 0.12 0.19
 -5 3 11 0.06 0.19
 -5 4 -4 3.03 0.21
 -5 4 -3 6.6 0.91
 -5 4 -2 17.4 1.4
 -5 4 -1 5.56 0.14
 -5 4 0 2.56 0.12
 -5 4 1 0.56 0.11
 -5 4 2 0.04 0.15
 -5 4 3 1.91 0.12
 -5 4 4 5.27 0.14
 -5 4 5 3.06 0.14
 -5 4 6 1.96 0.14
 -5 4 7 0.3 0.11
 -5 4 8 3.56 0.13
 -5 4 9 1.95 0.28
 -5 4 10 3.49 0.13
 -5 4 11 0.29 0.18
 -5 5 -4 0.01 0.06
 -5 5 -3 0.64 0.13
 -5 5 -2 1.16 0.14
 -5 5 -1 8.91 0.63
 -5 5 0 0.93 0.14
 -5 5 1 1.37 0.17
 -5 5 2 3.87 0.13
 -5 5 3 4.71 0.48
 -5 5 4 11.05 0.26
 -5 5 5 0.05 0.18
 -5 5 6 0.97 0.11
 -5 5 7 3.26 0.12
 -5 5 8 0.31 0.26
 -5 5 9 0.15 0.18
 -5 5 10 0.18 0.15
 -5 5 11 0.15 0.15
 -5 6 -4 1.64 0.12
 -5 6 -3 6.67 0.24
 -5 6 -2 5.94 0.16
 -5 6 -1 6.1 0.16
 -5 6 0 10.16 0.67
 -5 6 1 0.59 0.12
 -5 6 2 10.05 0.48
 -5 6 3 0.22 0.18
 -5 6 4 2.28 0.13
 -5 6 5 4.23 1.4
 -5 6 6 0.46 0.11
 -5 6 7 0.2 0.12
 -5 6 8 1.6 0.12
 -5 6 9 4.06 0.14
 -5 6 10 0.63 0.13
 -5 6 11 0.44 0.13
 -5 7 -4 0.18 0.15
 -5 7 -3 0.28 0.12
 -5 7 -2 1.65 0.22
 -5 7 -1 2.07 0.31
 -5 7 0 2.03 0.14
 -5 7 1 0.58 0.22
 -5 7 2 0.47 0.3
 -5 7 3 3.53 0.17
 -5 7 4 0.3 0.16
 -5 7 5 0.22 0.13
 -5 7 6 0.71 0.12
 -5 7 7 2.17 0.12
 -5 7 8 0.25 0.13
 -5 7 9 0.01 0.08
 -5 7 10 0.1 0.17
 -5 8 -4 0.54 0.11
 -5 8 -3 0.96 0.24
 -5 8 -2 1.82 0.12
 -5 8 -1 4.49 0.47
 -5 8 0 0.22 0.12
 -5 8 1 13.62 1.6
 -5 8 2 1.05 0.11
 -5 8 3 5.34 0.35
 -5 8 4 0.99 0.11
 -5 8 5 0.43 0.12
 -5 8 6 0.41 0.13
 -5 8 7 1.58 0.12
 -5 8 8 1.05 0.12
 -5 8 9 0.27 0.12
 -5 8 10 0.59 0.13
 -5 9 -4 1.85 0.13
 -5 9 -3 0.11 0.17
 -5 9 -2 0.08 0.15
 -5 9 -1 0.07 0.18
 -5 9 0 1.98 0.12
 -5 9 1 0.16 0.16
 -5 9 2 0.22 0.17
 -5 9 3 0.7 0.11
 -5 9 4 0.35 0.11
 -5 9 5 1.37 0.12
 -5 9 6 2.25 0.26
 -5 9 7 0.14 0.16
 -5 9 8 1.64 0.18
 -5 9 9 0.07 0.2
 -5 10 -4 0.15 0.19
 -5 10 -3 0.16 0.19
 -5 10 -2 0.14 0.19
 -5 10 -1 0.17 0.13
 -5 10 0 4.41 0.44
 -5 10 1 1.11 0.12
 -5 10 2 6.12 0.81
 -5 10 3 0.19 0.13
 -5 10 4 0.17 0.14
 -5 10 5 0.27 0.15
 -5 10 6 1.53 0.12
 -5 10 7 0.12 0.18
 -5 10 8 0.05 0.13
 -5 11 -4 0.03 0.14
 -5 11 -3 0.43 0.18
 -5 11 -2 0.12 0.19
 -5 11 -1 0.4 0.19
 -5 11 0 0.23 0.13
 -5 11 1 0.22 0.13
 -5 11 2 1.17 0.13
 -5 11 3 0.05 0.17
 -5 11 4 3.87 0.47
 -5 11 5 0.58 0.12
 -5 11 6 0.96 0.3
 -5 11 7 1.53 0.23
 -5 11 8 0.05 0.2
 -5 12 -4 0.02 0.12
 -5 12 -3 0.23 0.16
 -5 12 -2 0.24 0.19
 -5 12 -1 0.08 0.21
 -5 12 0 0.14 0.2
 -5 12 1 1.79 0.16
 -5 12 2 0.17 0.19
 -5 12 3 0.17 0.16
 -5 12 4 0.13 0.16
 -5 12 5 0.82 0.13
 -5 12 6 0.14 0.16
 -5 13 -2 0.11 0.19
 -5 13 -1 0.46 0.13
 -5 13 0 0.16 0.18
 -5 13 1 0.2 0.17
 -5 13 2 0.14 0.21
 -5 13 3 2.74 0.21
 -5 13 4 0.12 0.18
 -5 13 5 1.67 0.13
 -5 14 1 0.06 0.14
 -5 14 2 0.17 0.23
 -4 0 -2 12.86 0.32
 -4 0 0 190.22 1.73
 -4 0 2 111.96 1.3
 -4 0 4 1.91 0.19
 -4 0 6 5.89 0.19
 -4 0 8 7.7 0.24
 -4 0 10 0.56 0.16
 -4 0 12 3.01 0.2
 -4 1 -3 0.44 0.14
 -4 1 -2 17.66 1.81
 -4 1 -1 0.02 0.09
 -4 1 0 1.18 0.1
 -4 1 1 13.16 0.24
 -4 1 2 41.42 0.58
 -4 1 3 6.88 0.13
 -4 1 4 2.83 0.1
 -4 1 5 4.43 0.12
 -4 1 6 6.05 0.14
 -4 1 7 3.14 0.13
 -4 1 8 0.08 0.21
 -4 1 9 0.18 0.12
 -4 1 10 3.21 0.26
 -4 1 11 0.17 0.15
 -4 1 12 0.15 0.15
 -4 2 -3 0.16 0.12
 -4 2 -2 1.22 0.2
 -4 2 -1 53.28 0.68
 -4 2 0 1.75 0.14
 -4 2 1 125.19 1.43
 -4 2 2 3.59 0.1
 -4 2 3 14.41 0.28
 -4 2 4 25.51 0.59
 -4 2 5 1.04 0.11
 -4 2 6 1.78 0.12
 -4 2 7 8.17 0.16
 -4 2 8 1.97 0.14
 -4 2 9 0.72 0.11
 -4 2 10 0.37 0.12
 -4 2 11 1.93 0.15
 -4 2 12 0.03 0.14
 -4 3 -3 22.35 2.73
 -4 3 -2 3.48 0.52
 -4 3 -1 38.97 0.71
 -4 3 0 2.7 0.3
 -4 3 1 6.2 0.19
 -4 3 2 0.14 0.11
 -4 3 3 38.25 0.59
 -4 3 4 1.73 0.11
 -4 3 5 0.14 0.16
 -4 3 6 0.79 0.12
 -4 3 7 0.11 0.19
 -4 3 8 0.11 0.16
 -4 3 9 7.64 0.15
 -4 3 10 0.02 0.1
 -4 3 11 2.84 0.13
 -4 3 12 0.06 0.19
 -4 4 -3 4.91 0.26
 -4 4 -2 3.75 0.27
 -4 4 -1 0.83 0.1
 -4 4 0 26.1 1.36
 -4 4 1 2.5 0.1
 -4 4 2 13.51 0.27
 -4 4 3 26.04 0.84
 -4 4 4 0.54 0.15
 -4 4 5 20.92 0.37
 -4 4 6 2.16 0.12
 -4 4 7 1.37 0.13
 -4 4 8 1.68 0.11
 -4 4 9 3.29 0.13
 -4 4 10 0.07 0.21
 -4 4 11 0.13 0.16
 -4 4 12 0.46 0.12
 -4 5 -3 0.86 0.12
 -4 5 -2 42.23 0.7
 -4 5 -1 4.13 0.13
 -4 5 0 7.38 0.26
 -4 5 1 1.1 0.1
 -4 5 2 20.1 0.35
 -4 5 3 5.38 0.18
 -4 5 4 12.29 0.21
 -4 5 5 0.65 0.12
 -4 5 6 1.48 0.13
 -4 5 7 2.47 0.14
 -4 5 8 7.25 0.23
 -4 5 9 0.14 0.14
 -4 5 10 6.3 0.47
 -4 5 11 0.12 0.18
 -4 6 -3 1.02 0.13
 -4 6 -2 0.22 0.15
 -4 6 -1 0.62 0.11
 -4 6 0 9.61 0.18
 -4 6 1 0.16 0.12
 -4 6 2 0.14 0.15
 -4 6 3 0.05 0.16
 -4 6 4 17.7 0.58
 -4 6 5 0.99 0.12
 -4 6 6 0.38 0.13
 -4 6 7 0.36 0.16
 -4 6 8 4.41 0.13
 -4 6 9 0.06 0.19
 -4 6 10 0.3 0.13
 -4 6 11 0.03 0.11
 -4 7 -3 12.14 0.38
 -4 7 -2 0.57 0.12
 -4 7 -1 12.3 0.23
 -4 7 0 0.12 0.18
 -4 7 1 0.13 0.16
 -4 7 2 9.91 0.25
 -4 7 3 6.41 0.34
 -4 7 4 0.06 0.19
 -4 7 5 3.57 0.36
 -4 7 6 9.98 0.55
 -4 7 7 4.76 0.13
 -4 7 8 1.8 0.13
 -4 7 9 5.01 0.17
 -4 7 10 0.13 0.2
 -4 7 11 0.65 0.13
 -4 8 -3 0.53 0.2
 -4 8 -2 0.42 0.19
 -4 8 -1 4.66 0.15
 -4 8 0 2.9 0.14
 -4 8 1 9.04 0.18
 -4 8 2 1.11 0.13
 -4 8 3 0.22 0.13
 -4 8 4 1.49 0.16
 -4 8 5 0.48 0.1
 -4 8 6 0.67 0.11
 -4 8 7 1.86 0.11
 -4 8 8 0.37 0.12
 -4 8 9 0.51 0.16
 -4 8 10 0.05 0.16
 -4 9 -3 0.7 0.11
 -4 9 -2 1.15 0.14
 -4 9 -1 0.05 0.16
 -4 9 0 0.22 0.18
 -4 9 1 5.11 0.16
 -4 9 2 0.18 0.18
 -4 9 3 2.26 0.25
 -4 9 4 0.58 0.11
 -4 9 5 5.8 0.15
 -4 9 6 2.46 0.16
 -4 9 7 6.51 0.69
 -4 9 8 2.36 0.13
 -4 9 9 0.27 0.13
 -4 9 10 0.18 0.16
 -4 10 -3 2.09 0.12
 -4 10 -2 0.82 0.11
 -4 10 -1 0.47 0.11
 -4 10 0 6.23 0.14
 -4 10 1 2.04 0.16
 -4 10 2 3.53 0.43
 -4 10 3 1.1 0.17
 -4 10 4 0.65 0.35
 -4 10 5 2.58 0.2
 -4 10 6 0.75 0.12
 -4 10 7 0.03 0.13
 -4 10 8 0.16 0.18
 -4 10 9 0.18 0.16
 -4 11 -3 0.03 0.13
 -4 11 -2 0.24 0.17
 -4 11 -1 0.66 0.12
 -4 11 0 0.65 0.12
 -4 11 1 0.06 0.17
 -4 11 2 2.12 0.22
 -4 11 3 0.45 0.11
 -4 11 4 0.24 0.12
 -4 11 5 0.22 0.17
 -4 11 6 3.57 0.13
 -4 11 7 0.87 0.12
 -4 11 8 0.37 0.12
 -4 12 -3 0.31 0.13
 -4 12 -2 0.48 0.12
 -4 12 -1 1.15 0.13
 -4 12 0 0.42 0.14
 -4 12 1 1.73 0.16
 -4 12 2 0.24 0.12
 -4 12 3 1.94 0.17
 -4 12 4 3.74 0.22
 -4 12 5 1.53 0.15
 -4 12 6 0.25 0.14
 -4 12 7 0.18 0.17
 -4 12 8 0.35 0.13
 -4 13 -3 0.05 0.18
 -4 13 -2 1.36 0.15
 -4 13 -1 0.15 0.17
 -4 13 0 0.17 0.19
 -4 13 1 0.22 0.15
 -4 13 2 0.92 0.12
 -4 13 3 0.15 0.2
 -4 13 4 0.22 0.17
 -4 13 5 0.46 0.14
 -4 13 6 0.41 0.15
 -4 14 -3 0.18 0.18
 -4 14 -2 0.41 0.21
 -4 14 -1 0.04 0.17
 -4 14 0 0.24 0.2
 -4 14 1 0.2 0.14
 -4 14 2 0.25 0.14
 -4 14 3 2.09 0.13
 -4 14 4 1.24 0.13
 -4 14 5 0.91 0.13
 -4 15 0 0.15 0.2
 -4 15 1 0.03 0.11
 -4 15 2 0.06 0.23
 -3 0 -1 52.39 0.8
 -3 0 1 1.9 0.1
 -3 0 3 89.35 1.07
 -3 0 5 1.82 0.13
 -3 0 7 10.32 0.29
 -3 0 9 0.29 0.17
 -3 0 11 3.69 0.2
 -3 1 -2 22.71 2.11
 -3 1 -1 21.48 1.42
 -3 1 0 158.13 7.33
 -3 1 1 264.87 10.24
 -3 1 2 152.03 4.91
 -3 1 3 16.98 0.26
 -3 1 4 1.24 0.54
 -3 1 5 42.43 1
 -3 1 6 16.5 0.32
 -3 1 7 5.2 0.13
 -3 1 8 3.19 0.13
 -3 1 9 0.13 0.13
 -3 1 10 1.61 0.18
 -3 1 11 0.58 0.12
 -3 1 12 1.51 0.09
 -3 2 -2 4.24 0.3
 -3 2 -1 16.16 0.68
 -3 2 0 21.39 0.57
 -3 2 1 4.43 0.16
 -3 2 2 47.59 1.33
 -3 2 3 79.49 2.66
 -3 2 4 47.99 0.9
 -3 2 5 15.44 0.29
 -3 2 6 1.07 0.22
 -3 2 7 0.07 0.19
 -3 2 8 0.48 0.12
 -3 2 9 0.23 0.19
 -3 2 10 2.62 0.12
 -3 2 11 0.19 0.17
 -3 2 12 1.04 0.1
 -3 3 -2 14.19 0.27
 -3 3 -1 33.37 2.13
 -3 3 0 42.01 3.88
 -3 3 1 33.5 0.48
 -3 3 2 64.29 0.88
 -3 3 3 5.09 0.12
 -3 3 4 18.15 0.29
 -3 3 5 0.83 0.16
 -3 3 6 14.3 0.25
 -3 3 7 4.26 0.13
 -3 3 8 2.23 0.21
 -3 3 9 4.67 0.13
 -3 3 10 0.85 0.11
 -3 3 11 1.97 0.1
 -3 3 12 0.57 0.1
 -3 4 -2 12.9 0.22
 -3 4 -1 3.89 2.38
 -3 4 0 8.44 0.46
 -3 4 1 13.87 0.63
 -3 4 2 86.61 0.77
 -3 4 3 62.75 0.82
 -3 4 4 91.6 0.87
 -3 4 5 15.55 0.4
 -3 4 6 1.32 0.19
 -3 4 7 0.88 0.11
 -3 4 8 0.27 0.17
 -3 4 9 1.39 0.11
 -3 4 10 0.63 0.17
 -3 4 11 0.74 0.1
 -3 4 12 0.06 0.16
 -3 5 -2 21.98 0.34
 -3 5 -1 1.25 0.1
 -3 5 0 0.43 0.09
 -3 5 1 24.14 0.78
 -3 5 2 0.95 0.09
 -3 5 3 0.05 0.14
 -3 5 4 2.89 0.11
 -3 5 5 10.24 0.2
 -3 5 6 1.21 0.11
 -3 5 7 0.44 0.12
 -3 5 8 2.21 0.15
 -3 5 9 3.75 0.18
 -3 5 10 1.91 0.12
 -3 5 11 0.11 0.14
 -3 5 12 0.13 0.12
 -3 6 -2 0.07 0.15
 -3 6 -1 16.22 0.56
 -3 6 0 13.18 0.9
 -3 6 1 4.67 0.11
 -3 6 2 30.5 0.54
 -3 6 3 79.78 0.88
 -3 6 4 23.98 0.95
 -3 6 5 11.48 0.22
 -3 6 6 14.05 0.26
 -3 6 7 1.74 0.29
 -3 6 8 4.64 0.38
 -3 6 9 0.2 0.12
 -3 6 10 0.36 0.1
 -3 6 11 0.57 0.1
 -3 6 12 0.18 0.16
 -3 7 -2 2.13 0.14
 -3 7 -1 0.03 0.11
 -3 7 0 0.36 0.11
 -3 7 1 19.32 0.47
 -3 7 2 0.67 0.27
 -3 7 3 0.65 0.12
 -3 7 4 1.61 0.11
 -3 7 5 12.43 1.76
 -3 7 6 0.04 0.16
 -3 7 7 0.71 0.19
 -3 7 8 1.61 0.14
 -3 7 9 1.12 0.12
 -3 7 10 0.25 0.13
 -3 7 11 0.12 0.17
 -3 8 -2 1.11 0.25
 -3 8 -1 8.4 0.31
 -3 8 0 2.05 0.11
 -3 8 1 16.47 0.52
 -3 8 2 10.61 0.21
 -3 8 3 6.68 0.23
 -3 8 4 8.97 0.23
 -3 8 5 11.47 0.72
 -3 8 6 0.85 0.13
 -3 8 7 11.47 0.84
 -3 8 8 0.33 0.15
 -3 8 9 1.22 0.27
 -3 8 10 0.46 0.1
 -3 8 11 0.31 0.1
 -3 9 -2 0.23 0.14
 -3 9 -1 1.48 0.12
 -3 9 0 13.3 0.25
 -3 9 1 0.17 0.14
 -3 9 2 12.98 0.24
 -3 9 3 0.07 0.22
 -3 9 4 3.13 0.14
 -3 9 5 0.14 0.15
 -3 9 6 5.54 0.61
 -3 9 7 0.2 0.12
 -3 9 8 0.07 0.2
 -3 9 9 0.15 0.2
 -3 9 10 0.18 0.12
 -3 10 -2 0.75 0.11
 -3 10 -1 0.39 0.34
 -3 10 0 9.71 0.46
 -3 10 1 0.05 0.18
 -3 10 2 1.04 0.16
 -3 10 3 0.62 0.39
 -3 10 4 0.33 0.11
 -3 10 5 0.59 0.11
 -3 10 6 6.19 0.29
 -3 10 7 0.76 0.13
 -3 10 8 2.87 0.38
 -3 10 9 0.16 0.12
 -3 10 10 0.14 0.13
 -3 11 -2 7.5 0.22
 -3 11 -1 1.46 0.12
 -3 11 0 1.68 0.1
 -3 11 1 7.19 0.22
 -3 11 2 0.07 0.19
 -3 11 3 0.07 0.19
 -3 11 4 0.65 0.11
 -3 11 5 3.44 0.19
 -3 11 6 0.3 0.12
 -3 11 7 0.36 0.23
 -3 11 8 0.68 0.2
 -3 11 9 0.01 0.05
 -3 12 -2 0.52 0.11
 -3 12 -1 2.66 0.25
 -3 12 0 0.16 0.16
 -3 12 1 0.5 0.12
 -3 12 2 0.21 0.12
 -3 12 3 1.22 0.12
 -3 12 4 0.92 0.12
 -3 12 5 0.33 0.13
 -3 12 6 0.33 0.13
 -3 12 7 1.81 0.12
 -3 12 8 0.04 0.15
 -3 13 -2 0.11 0.18
 -3 13 -1 4.06 0.14
 -3 13 0 0.33 0.12
 -3 13 1 0.14 0.17
 -3 13 2 0.25 0.13
 -3 13 3 0.29 0.2
 -3 13 4 0.27 0.13
 -3 13 5 0.72 0.12
 -3 13 6 0.17 0.13
 -3 13 7 0.3 0.17
 -3 14 -2 0.31 0.17
 -3 14 -1 0.68 0.18
 -3 14 0 0.35 0.13
 -3 14 1 0.71 0.55
 -3 14 2 0.66 0.12
 -3 14 3 0.69 0.14
 -3 14 4 0.73 0.13
 -3 14 5 0.32 0.12
 -3 14 6 0.16 0.18
 -3 15 -2 2.22 0.16
 -3 15 -1 0.21 0.18
 -3 15 0 0.24 0.13
 -3 15 1 0.21 0.14
 -3 15 2 0.11 0.19
 -3 15 3 0.2 0.17
 -3 15 4 0.45 0.17
 -2 0 0 66.77 0.71
 -2 0 2 202.43 1.33
 -2 0 4 78.66 0.95
 -2 0 6 194.44 1.79
 -2 0 8 24.28 0.41
 -2 0 10 0.1 0.16
 -2 0 12 0.19 0.17
 -2 1 -1 54.29 2.81
 -2 1 0 95.89 2.65
 -2 1 1 129.84 5.23
 -2 1 2 8.85 0.16
 -2 1 3 10.23 0.29
 -2 1 4 154.95 2.02
 -2 1 5 10.13 0.19
 -2 1 6 3.03 0.16
 -2 1 7 0.53 0.1
 -2 1 8 5.11 0.14
 -2 1 9 0.22 0.11
 -2 1 10 0.11 0.15
 -2 1 11 1.3 0.09
 -2 1 12 0.66 0.12
 -2 1 13 0.22 0.15
 -2 2 -1 9.93 0.36
 -2 2 0 14.17 0.27
 -2 2 1 101.95 1.28
 -2 2 2 102.25 1.36
 -2 2 3 0.58 0.16
 -2 2 4 23.36 0.41
 -2 2 5 138.99 1.45
 -2 2 6 0.09 0.16
 -2 2 7 58.68 0.78
 -2 2 8 1.31 0.14
 -2 2 9 1.52 0.09
 -2 2 10 1.8 0.08
 -2 2 11 0.1 0.16
 -2 2 12 0.14 0.17
 -2 3 -1 4.29 0.38
 -2 3 0 5.28 0.33
 -2 3 1 0.04 0.11
 -2 3 2 1.7 0.07
 -2 3 3 229.86 6.72
 -2 3 4 0.16 0.12
 -2 3 5 80.44 0.78
 -2 3 6 0.26 0.18
 -2 3 7 4.21 0.17
 -2 3 8 1.73 0.15
 -2 3 9 5.22 0.12
 -2 3 10 1.34 0.09
 -2 3 11 0.07 0.14
 -2 3 12 0.39 0.13
 -2 4 -1 97.66 4.26
 -2 4 0 0.12 0.09
 -2 4 1 40.06 0.95
 -2 4 2 4.85 0.13
 -2 4 3 114.41 2.12
 -2 4 4 16.03 0.54
 -2 4 5 0.06 0.16
 -2 4 6 24.21 0.71
 -2 4 7 0.17 0.13
 -2 4 8 2.51 0.1
 -2 4 9 4.26 0.09
 -2 4 10 0.07 0.14
 -2 4 11 0.99 0.1
 -2 4 12 0.13 0.16
 -2 5 -1 11.04 0.63
 -2 5 0 4.83 0.2
 -2 5 1 20.48 0.43
 -2 5 2 75.4 0.7
 -2 5 3 1.89 0.23
 -2 5 4 123.62 3.47
 -2 5 5 2.72 0.21
 -2 5 6 2.35 0.31
 -2 5 7 2.57 0.19
 -2 5 8 8.78 0.27
 -2 5 9 2.02 0.07
 -2 5 10 1.33 0.1
 -2 5 11 0.08 0.17
 -2 5 12 0.1 0.15
 -2 6 -1 0.08 0.13
 -2 6 0 4.93 0.11
 -2 6 1 0.39 0.09
 -2 6 2 58.33 2.44
 -2 6 3 1.18 0.1
 -2 6 4 3.12 0.21
 -2 6 5 0.13 0.15
 -2 6 6 7.45 0.15
 -2 6 7 0.27 0.11
 -2 6 8 0.19 0.11
 -2 6 9 0.1 0.14
 -2 6 10 1.83 0.15
 -2 6 11 0.26 0.12
 -2 6 12 0.06 0.13
 -2 7 -1 25.52 0.6
 -2 7 0 68.41 0.74
 -2 7 1 36.18 0.98
 -2 7 2 11.85 0.36
 -2 7 3 57.48 2.07
 -2 7 4 4.97 0.13
 -2 7 5 11.62 0.35
 -2 7 6 0.04 0.15
 -2 7 7 1.09 0.13
 -2 7 8 2.92 0.21
 -2 7 9 1.74 0.25
 -2 7 10 0.05 0.16
 -2 7 11 0.26 0.1
 -2 8 -1 6.23 0.13
 -2 8 0 0.03 0.11
 -2 8 1 4.68 0.12
 -2 8 2 6.45 0.13
 -2 8 3 2.84 0.12
 -2 8 4 0.32 0.14
 -2 8 5 9.41 0.23
 -2 8 6 5.96 0.13
 -2 8 7 4.04 0.1
 -2 8 8 0.63 0.09
 -2 8 9 0.19 0.15
 -2 8 10 0.47 0.1
 -2 8 11 0.06 0.16
 -2 9 -1 26.57 0.56
 -2 9 0 16.55 0.42
 -2 9 1 43.79 1.59
 -2 9 2 14.52 0.53
 -2 9 3 0.26 0.12
 -2 9 4 2.34 0.17
 -2 9 5 0.72 0.13
 -2 9 6 0.12 0.16
 -2 9 7 1.78 0.13
 -2 9 8 0.1 0.16
 -2 9 9 0.28 0.2
 -2 9 10 0.09 0.17
 -2 10 -1 3.41 0.13
 -2 10 0 0.57 0.21
 -2 10 1 3.21 0.13
 -2 10 2 0.06 0.2
 -2 10 3 3.49 0.14
 -2 10 4 5.52 0.22
 -2 10 5 2.43 0.2
 -2 10 6 6.88 0.44
 -2 10 7 1.8 0.18
 -2 10 8 0.87 0.09
 -2 10 9 0.38 0.23
 -2 10 10 0.13 0.17
 -2 11 -1 2.4 0.14
 -2 11 0 15.08 1.22
 -2 11 1 4.08 0.35
 -2 11 2 3.59 0.15
 -2 11 3 0.2 0.11
 -2 11 4 0.3 0.15
 -2 11 5 0.82 0.18
 -2 11 6 0.11 0.16
 -2 11 7 0.32 0.12
 -2 11 8 0.18 0.13
 -2 11 9 0.47 0.2
 -2 12 -1 2.25 0.12
 -2 12 0 0.39 0.12
 -2 12 1 0.05 0.16
 -2 12 2 4.32 0.13
 -2 12 3 3.12 0.17
 -2 12 4 0.42 0.18
 -2 12 5 3.42 0.25
 -2 12 6 0.64 0.1
 -2 12 7 0.94 0.12
 -2 12 8 0.28 0.17
 -2 12 9 0.29 0.12
 -2 13 -1 0.27 0.12
 -2 13 0 1.33 0.12
 -2 13 1 0.41 0.11
 -2 13 2 0.03 0.11
 -2 13 3 0.06 0.19
 -2 13 4 2.25 0.13
 -2 13 5 0.1 0.16
 -2 13 6 0.11 0.17
 -2 13 7 0.22 0.12
 -2 13 8 0.99 0.16
 -2 14 -1 1.77 0.13
 -2 14 0 0.19 0.14
 -2 14 1 0.56 0.12
 -2 14 2 1.66 0.11
 -2 14 3 1.26 0.12
 -2 14 4 1.12 0.1
 -2 14 5 0.06 0.16
 -2 14 6 0.14 0.14
 -2 15 -1 0.02 0.08
 -2 15 0 0.45 0.13
 -2 15 1 0.35 0.12
 -2 15 2 0.45 0.13
 -2 15 3 0.61 0.12
 -2 15 4 0.05 0.15
 -2 15 5 0.31 0.11
 -2 16 -1 0.48 0.11
 -2 16 0 0.14 0.17
 -2 16 1 0.3 0.14
 -2 16 2 0.19 0.14
 -1 0 1 671.72 4.49
 -1 0 3 7.21 0.2
 -1 0 5 113.21 0.84
 -1 0 7 2.13 0.15
 -1 0 9 2.92 0.19
 -1 0 11 0.16 0.19
 -1 0 13 0.32 0.17
 -1 1 0 687.51 28.78
 -1 1 1 326.26 6.17
 -1 1 2 314.4 6.64
 -1 1 3 15.98 0.27
 -1 1 4 67.63 0.57
 -1 1 5 23.72 0.3
 -1 1 6 60.69 0.91
 -1 1 7 42.1 3.39
 -1 1 8 7.84 0.15
 -1 1 9 0.58 0.13
 -1 1 10 0.66 0.11
 -1 1 11 1.5 0.12
 -1 1 12 0.73 0.12
 -1 1 13 0.05 0.16
 -1 2 0 78.74 5.67
 -1 2 1 3.28 0.09
 -1 2 2 49.57 1.45
 -1 2 3 2.84 0.2
 -1 2 4 85.46 4.36
 -1 2 5 9.53 0.15
 -1 2 6 19.02 0.43
 -1 2 7 4.12 0.42
 -1 2 8 2.61 0.21
 -1 2 9 8.3 0.62
 -1 2 10 1.14 0.18
 -1 2 11 0.75 0.11
 -1 2 12 0.15 0.17
 -1 3 0 312.05 5.76
 -1 3 1 231.13 4.38
 -1 3 2 74.01 2.32
 -1 3 3 189.61 3.53
 -1 3 4 36.51 0.39
 -1 3 5 49.83 0.82
 -1 3 6 27.41 1.09
 -1 3 7 6.05 0.56
 -1 3 8 8.71 0.37
 -1 3 9 0.19 0.11
 -1 3 10 0.45 0.11
 -1 3 11 0.17 0.14
 -1 3 12 0.2 0.13
 -1 4 0 0.4 0.06
 -1 4 1 4.83 0.09
 -1 4 2 45 1.38
 -1 4 3 6.73 0.11
 -1 4 4 14.93 0.34
 -1 4 5 5 0.09
 -1 4 6 0.1 0.15
 -1 4 7 2.95 0.49
 -1 4 8 19.12 2.56
 -1 4 9 4.51 0.33
 -1 4 10 6.37 0.18
 -1 4 11 0.26 0.13
 -1 4 12 0.13 0.15
 -1 5 0 2.81 0.12
 -1 5 1 0.09 0.09
 -1 5 2 105.42 3.36
 -1 5 3 73.01 1.46
 -1 5 4 53.85 0.51
 -1 5 5 0.15 0.1
 -1 5 6 0.29 0.09
 -1 5 7 11.93 0.74
 -1 5 8 2.35 1.74
 -1 5 9 0.25 0.14
 -1 5 10 0.1 0.16
 -1 5 11 0.23 0.15
 -1 5 12 0.09 0.18
 -1 6 0 43.45 2.3
 -1 6 1 37.26 1.26
 -1 6 2 14.81 0.39
 -1 6 3 0.96 0.66
 -1 6 4 0.49 0.09
 -1 6 5 11.85 0.23
 -1 6 6 10.32 0.65
 -1 6 7 4.12 0.14
 -1 6 8 6.8 0.22
 -1 6 9 10.07 0.28
 -1 6 10 1.5 0.13
 -1 6 11 0.46 0.13
 -1 6 12 0.32 0.14
 -1 7 0 4.44 0.24
 -1 7 1 0.12 0.12
 -1 7 2 9.07 0.27
 -1 7 3 26.47 0.59
 -1 7 4 1.76 0.1
 -1 7 5 0.12 0.14
 -1 7 6 2.91 0.1
 -1 7 7 6.32 0.26
 -1 7 8 0.96 0.09
 -1 7 9 0 0.04
 -1 7 10 0.07 0.19
 -1 7 11 0.88 0.19
 -1 8 0 3.39 0.34
 -1 8 1 62.01 3.29
 -1 8 2 7.12 0.26
 -1 8 3 2.15 0.09
 -1 8 4 5.53 0.13
 -1 8 5 15.44 0.53
 -1 8 6 0.99 0.1
 -1 8 7 7.95 0.23
 -1 8 8 2.66 0.27
 -1 8 9 1.15 0.22
 -1 8 10 0.48 0.12
 -1 8 11 0.66 0.12
 -1 9 0 24.82 1.11
 -1 9 1 0.92 0.15
 -1 9 2 0.19 0.11
 -1 9 3 3.35 0.1
 -1 9 4 0.17 0.17
 -1 9 5 3.16 0.14
 -1 9 6 7.4 0.3
 -1 9 7 0.47 0.09
 -1 9 8 1.41 0.1
 -1 9 9 0.01 0.08
 -1 9 10 1.01 0.12
 -1 9 11 0.19 0.19
 -1 10 0 27.19 1.71
 -1 10 1 3.51 0.1
 -1 10 2 14.28 0.55
 -1 10 3 0.24 0.15
 -1 10 4 4.67 0.15
 -1 10 5 1.86 0.23
 -1 10 6 7.4 0.4
 -1 10 7 0.2 0.14
 -1 10 8 0.23 0.11
 -1 10 9 0.04 0.12
 -1 10 10 0.18 0.13
 -1 11 0 0.22 0.13
 -1 11 1 2.68 0.11
 -1 11 2 12.81 0.4
 -1 11 3 0.05 0.18
 -1 11 4 12.17 0.75
 -1 11 5 1.9 0.11
 -1 11 6 0.87 0.09
 -1 11 7 2.05 0.1
 -1 11 8 0.02 0.07
 -1 11 9 0.22 0.12
 -1 12 0 0.35 0.09
 -1 12 1 7.18 0.12
 -1 12 2 0.02 0.09
 -1 12 3 0.08 0.19
 -1 12 4 0.08 0.15
 -1 12 5 2.96 0.12
 -1 12 6 0.11 0.17
 -1 12 7 0.1 0.16
 -1 12 8 0.19 0.12
 -1 12 9 0.41 0.1
 -1 13 0 0.43 0.09
 -1 13 1 3.44 0.22
 -1 13 2 0.06 0.13
 -1 13 3 13.9 0.7
 -1 13 4 0.11 0.18
 -1 13 5 2.95 0.13
 -1 13 6 0.41 0.13
 -1 13 7 0.11 0.16
 -1 13 8 0.09 0.15
 -1 14 0 0.2 0.13
 -1 14 1 0.63 0.09
 -1 14 2 0.36 0.1
 -1 14 3 0.32 0.13
 -1 14 4 0.35 0.13
 -1 14 5 0.2 0.16
 -1 14 6 0.15 0.17
 -1 14 7 0.1 0.16
 -1 15 0 0.13 0.16
 -1 15 1 0.11 0.17
 -1 15 2 4.13 0.11
 -1 15 3 0.04 0.16
 -1 15 4 3.03 0.14
 -1 15 5 0.06 0.18
 -1 16 0 0.68 0.1
 -1 16 1 0.07 0.16
 -1 16 2 0.6 0.11
 -1 16 3 0.18 0.13
 0 0 2 936.92 6.07
 0 0 4 16.15 0.45
 0 0 6 1.94 0.14
 0 0 8 1.52 0.16
 0 0 10 3.68 0.17
 0 0 12 3.32 0.19
 0 1 1 48.24 1.52
 0 1 2 424.53 10.62
 0 1 3 6.03 0.3
 0 1 4 1.47 0.07
 0 1 5 32.08 0.47
 0 1 6 19.65 0.31
 0 1 7 6.42 0.39
 0 1 8 0.89 0.12
 0 1 9 0.8 0.27
 0 1 10 3.73 0.12
 0 1 11 0.6 0.22
 0 1 12 0.17 0.17
 0 2 0 2.12 0.06
 0 2 1 1952.95 88.65
 0 2 2 40.35 1.83
 0 2 3 0.06 0.08
 0 2 4 56.58 1.61
 0 2 5 2.79 0.1
 0 2 6 0.05 0.15
 0 2 7 4.29 0.4
 0 2 8 7.13 0.92
 0 2 9 0.2 0.11
 0 2 10 0.93 0.12
 0 2 11 3.42 0.23
 0 2 12 0.05 0.16
 0 3 1 308.91 5.12
 0 3 2 11.23 0.47
 0 3 3 250.44 12.56
 0 3 4 6.17 0.45
 0 3 5 0.11 0.1
 0 3 6 2.15 0.19
 0 3 7 0.53 0.11
 0 3 8 0.28 0.18
 0 3 9 9.52 0.63
 0 3 10 0.16 0.13
 0 3 11 1.39 0.12
 0 3 12 0.19 0.16
 0 4 0 323.6 1.75
 0 4 1 17.75 0.49
 0 4 2 25.6 1.14
 0 4 3 75.1 3.68
 0 4 4 0.57 0.18
 0 4 5 14.75 0.91
 0 4 6 2.17 0.15
 0 4 7 12.42 1.34
 0 4 8 1 0.48
 0 4 9 6.87 0.37
 0 4 10 0.26 0.12
 0 4 11 0.07 0.14
 0 4 12 0.31 0.14
 0 5 1 32.48 0.9
 0 5 2 231.98 4.84
 0 5 3 14.76 0.91
 0 5 4 49.46 1.72
 0 5 5 4.83 0.37
 0 5 6 4.53 0.16
 0 5 7 2.64 0.15
 0 5 8 10.75 1.06
 0 5 9 0.03 0.13
 0 5 10 4.23 0.15
 0 5 11 0.12 0.17
 0 5 12 0.11 0.16
 0 6 0 43.66 0.81
 0 6 1 0.16 0.07
 0 6 2 3.3 0.11
 0 6 3 1.19 0.09
 0 6 4 37.31 1.27
 0 6 5 3.95 0.24
 0 6 6 0.88 0.11
 0 6 7 1.28 0.13
 0 6 8 9.45 0.36
 0 6 9 0.02 0.08
 0 6 10 0.35 0.19
 0 6 11 0.27 0.18
 0 6 12 0.07 0.2
 0 7 1 23.27 0.46
 0 7 2 26.15 0.67
 0 7 3 43.47 1.64
 0 7 4 4.81 0.45
 0 7 5 13.29 0.59
 0 7 6 23.01 1.31
 0 7 7 8.56 0.5
 0 7 8 1.23 0.14
 0 7 9 4.03 0.16
 0 7 10 0.18 0.15
 0 7 11 0.27 0.12
 0 8 0 25.85 0.52
 0 8 1 22.34 0.33
 0 8 2 1.17 0.08
 0 8 3 2.32 0.09
 0 8 4 7.64 0.44
 0 8 5 0.84 0.12
 0 8 6 1.61 0.13
 0 8 7 2.71 0.24
 0 8 8 0.03 0.13
 0 8 9 0.21 0.13
 0 8 10 0.4 0.28
 0 8 11 0.5 0.12
 0 9 1 5.5 0.12
 0 9 2 1.53 0.09
 0 9 3 0.12 0.15
 0 9 4 4.25 0.17
 0 9 5 22.43 1.35
 0 9 6 5.14 0.13
 0 9 7 8.21 0.16
 0 9 8 1.92 0.12
 0 9 9 0.03 0.11
 0 9 10 0.07 0.2
 0 10 0 26.08 0.6
 0 10 1 6.48 0.31
 0 10 2 8.01 0.22
 0 10 3 5.76 0.29
 0 10 4 0.28 0.11
 0 10 5 4.67 0.13
 0 10 6 0.22 0.15
 0 10 7 0.04 0.15
 0 10 8 0.08 0.18
 0 10 9 0.04 0.16
 0 10 10 0.67 0.13
 0 11 1 1.3 0.13
 0 11 2 0.87 0.11
 0 11 3 1.04 0.11
 0 11 4 3.98 0.1
 0 11 5 0.88 0.11
 0 11 6 6.64 0.33
 0 11 7 0.94 0.11
 0 11 8 0.22 0.15
 0 11 9 0.19 0.13
 0 12 0 1.38 0.17
 0 12 1 5.96 0.23
 0 12 2 1 0.08
 0 12 3 3.35 0.1
 0 12 4 6.01 0.11
 0 12 5 0.62 0.09
 0 12 6 0.14 0.19
 0 12 7 0.25 0.13
 0 12 8 0.67 0.13
 0 13 1 0.04 0.14
 0 13 2 3.95 0.1
 0 13 3 0.1 0.15
 0 13 4 0.22 0.11
 0 13 5 0.68 0.1
 0 13 6 0.34 0.13
 0 13 7 0.05 0.17
 0 13 8 0.04 0.15
 0 14 0 0.17 0.19
 0 14 1 0.62 0.24
 0 14 2 1.16 0.09
 0 14 3 2.93 0.1
 0 14 4 1.42 0.18
 0 14 5 0.46 0.11
 0 14 6 0.03 0.13
 0 14 7 0.31 0.12
 0 15 1 0.87 0.18
 0 15 2 0.2 0.13
 0 15 3 1.03 0.1
 0 15 4 0.16 0.13
 0 15 5 0.1 0.14
 0 16 0 0.4 0.19
 0 16 1 0.16 0.17
 0 16 2 0.76 0.13
 0 16 3 0.4 0.18
 1 0 1 0.19 0.06
 1 0 3 193.66 1.36
 1 0 5 0.72 0.12
 1 0 7 5.71 0.19
 1 0 9 2.18 0.16
 1 0 11 3.25 0.18
 1 1 1 748.21 28.34
 1 1 2 57.56 3.84
 1 1 3 0.03 0.09
 1 1 4 38.47 0.71
 1 1 5 62.12 0.93
 1 1 6 31.25 1
 1 1 7 3.88 0.13
 1 1 8 4.31 0.37
 1 1 9 0.08 0.2
 1 1 10 1.17 0.15
 1 1 11 0.47 0.12
 1 1 12 0.55 0.13
 1 2 1 182.55 6.23
 1 2 2 234.56 8.4
 1 2 3 235.75 10.14
 1 2 4 51.33 1.67
 1 2 5 12.5 0.21
 1 2 6 2.87 0.34
 1 2 7 1.1 0.14
 1 2 8 0.01 0.09
 1 2 9 0.07 0.19
 1 2 10 2.72 0.13
 1 2 11 0.26 0.21
 1 2 12 0.43 0.12
 1 3 1 2.88 0.14
 1 3 2 140.01 0.8
 1 3 3 5.97 0.15
 1 3 4 27.59 0.96
 1 3 5 9.34 0.35
 1 3 6 6.74 0.58
 1 3 7 9.86 0.68
 1 3 8 2.97 0.48
 1 3 9 4.18 0.29
 1 3 10 0.35 0.17
 1 3 11 0.76 0.12
 1 3 12 0.45 0.12
 1 4 1 54.03 1.13
 1 4 2 283.31 3.36
 1 4 3 110.37 2.72
 1 4 4 103.08 2.62
 1 4 5 8.61 0.62
 1 4 6 0.13 0.16
 1 4 7 0.04 0.12
 1 4 8 1.84 0.23
 1 4 9 0.65 0.11
 1 4 10 0.1 0.18
 1 4 11 0.41 0.27
 1 4 12 0.12 0.17
 1 5 1 111.72 1.37
 1 5 2 17.8 0.66
 1 5 3 1.07 0.09
 1 5 4 2.71 0.13
 1 5 5 5.2 0.34
 1 5 6 0.1 0.15
 1 5 7 2.66 0.45
 1 5 8 3.5 0.12
 1 5 9 3.13 0.1
 1 5 10 1.1 0.12
 1 5 11 0.08 0.19
 1 6 1 36.85 1.78
 1 6 2 52.95 2.12
 1 6 3 123.29 4.44
 1 6 4 24.34 2.01
 1 6 5 4.89 0.29
 1 6 6 7.46 0.58
 1 6 7 3.16 0.33
 1 6 8 0.96 0.11
 1 6 9 0.22 0.13
 1 6 10 0.27 0.17
 1 6 11 0.02 0.09
 1 7 1 43.35 2.32
 1 7 2 5.93 0.44
 1 7 3 0.39 0.1
 1 7 4 0.21 0.11
 1 7 5 15.09 0.43
 1 7 6 0.56 0.15
 1 7 7 0.25 0.15
 1 7 8 1.58 0.12
 1 7 9 0.68 0.16
 1 7 10 0.09 0.23
 1 7 11 0.1 0.17
 1 8 1 40.59 2.15
 1 8 2 19.69 1.61
 1 8 3 10.66 0.8
 1 8 4 7.21 0.36
 1 8 5 10.7 0.51
 1 8 6 1.2 0.13
 1 8 7 4.79 0.33
 1 8 8 0.18 0.13
 1 8 9 0.03 0.11
 1 8 10 0.39 0.12
 1 9 1 0.15 0.16
 1 9 2 6.88 0.44
 1 9 3 0.07 0.2
 1 9 4 12.26 0.43
 1 9 5 0.15 0.17
 1 9 6 6.78 0.14
 1 9 7 0.11 0.16
 1 9 8 0.1 0.17
 1 9 9 0.14 0.17
 1 9 10 0.01 0.05
 1 10 1 0.72 0.11
 1 10 2 1.44 0.19
 1 10 3 0.21 0.14
 1 10 4 0.83 0.13
 1 10 5 0.44 0.11
 1 10 6 4.81 0.2
 1 10 7 0.35 0.23
 1 10 8 0.7 0.19
 1 10 9 0.26 0.12
 1 11 1 7.81 0.53
 1 11 2 0.45 0.13
 1 11 3 0.58 0.1
 1 11 4 0.18 0.12
 1 11 5 5.45 0.14
 1 11 6 0.17 0.13
 1 11 7 0.37 0.12
 1 11 8 1.23 0.15
 1 11 9 0.1 0.17
 1 12 1 0.38 0.11
 1 12 2 1.53 0.11
 1 12 3 1.31 0.15
 1 12 4 1.04 0.1
 1 12 5 0.3 0.2
 1 12 6 0.08 0.17
 1 12 7 1.25 0.12
 1 12 8 0.15 0.18
 1 13 1 0.43 0.11
 1 13 2 0.14 0.17
 1 13 3 0.05 0.17
 1 13 4 0.52 0.12
 1 13 5 0.08 0.22
 1 13 6 0.2 0.16
 1 13 7 0.82 0.15
 1 14 1 0.09 0.18
 1 14 2 1.45 0.11
 1 14 3 0.96 0.12
 1 14 4 0.6 0.17
 1 14 5 0.11 0.18
 1 14 6 0.36 0.25
 1 15 1 0.22 0.11
 1 15 2 0.23 0.13
 1 15 3 0.06 0.18
 1 15 4 0.12 0.17
 1 15 5 0.09 0.18
 1 16 1 0.14 0.19
 1 16 2 0.08 0.21
 1 16 3 0.5 0.21
 2 0 2 12.13 0.28
 2 0 4 94.16 1.14
 2 0 6 92.51 1.37
 2 0 8 4.81 0.22
 2 0 10 0 0.11
 2 0 12 0.18 0.18
 2 1 2 32.28 2.56
 2 1 3 12.44 0.54
 2 1 4 70.99 2.71
 2 1 5 8.78 0.14
 2 1 6 0.68 0.1
 2 1 7 0.37 0.12
 2 1 8 1.52 0.13
 2 1 9 0.76 0.23
 2 1 10 0.15 0.14
 2 1 11 0.49 0.13
 2 1 12 0.24 0.19
 2 2 2 95.96 4.32
 2 2 3 2.16 0.08
 2 2 4 7.84 0.51
 2 2 5 83.76 4.51
 2 2 6 0.16 0.16
 2 2 7 19.88 1.65
 2 2 8 0.54 0.14
 2 2 9 1.55 1.03
 2 2 10 0.27 0.17
 2 2 11 0.14 0.2
 2 3 2 1.64 0.08
 2 3 3 126.72 7.14
 2 3 4 0.11 0.15
 2 3 5 15.26 0.88
 2 3 6 2.01 0.11
 2 3 7 6.65 0.23
 2 3 8 1.94 0.11
 2 3 9 2.12 0.57
 2 3 10 0.6 0.12
 2 3 11 0.1 0.19
 2 4 2 4.72 0.17
 2 4 3 48.33 0.62
 2 4 4 8.88 0.33
 2 4 5 0.13 0.15
 2 4 6 11.14 0.86
 2 4 7 0.14 0.17
 2 4 8 0.6 0.11
 2 4 9 0.86 0.14
 2 4 10 0.02 0.11
 2 4 11 0.12 0.18
 2 5 2 53.25 2.52
 2 5 3 5.44 0.11
 2 5 4 36.35 1.92
 2 5 5 4.76 3.45
 2 5 6 1.2 0.12
 2 5 7 2.26 0.45
 2 5 8 7.02 0.25
 2 5 9 0.56 0.09
 2 5 10 0.7 0.1
 2 5 11 0.11 0.16
 2 6 2 53.45 0.66
 2 6 3 0.09 0.15
 2 6 4 0.63 0.1
 2 6 5 0.03 0.13
 2 6 6 3.21 0.27
 2 6 7 0.18 0.15
 2 6 8 0.18 0.15
 2 6 9 0.2 0.14
 2 6 10 0.32 0.13
 2 6 11 0.19 0.17
 2 7 2 1.95 0.19
 2 7 3 22.27 0.78
 2 7 4 7.17 0.15
 2 7 5 0.79 0.2
 2 7 6 0.13 0.19
 2 7 7 2.84 0.2
 2 7 8 0.46 0.11
 2 7 9 1.55 0.16
 2 7 10 0.22 0.14
 2 8 2 1.18 0.23
 2 8 3 0.56 0.11
 2 8 4 1.3 0.12
 2 8 5 6.19 0.31
 2 8 6 2.83 0.12
 2 8 7 1.53 0.11
 2 8 8 0.13 0.19
 2 8 9 0.19 0.18
 2 8 10 0.41 0.13
 2 9 2 5.97 0.14
 2 9 3 1.19 0.12
 2 9 4 0.52 0.12
 2 9 5 2.03 0.11
 2 9 6 0.11 0.16
 2 9 7 0.13 0.18
 2 9 8 0.24 0.16
 2 9 9 0.09 0.19
 2 10 2 0.86 0.12
 2 10 3 1.01 0.13
 2 10 4 4.93 0.13
 2 10 5 1.9 0.12
 2 10 6 3.58 0.13
 2 10 7 0.3 0.13
 2 10 8 0.29 0.14
 2 10 9 0.44 0.13
 2 11 2 0.75 0.1
 2 11 3 0.17 0.13
 2 11 4 1.46 0.16
 2 11 5 0.1 0.17
 2 11 6 0.18 0.18
 2 11 7 0.38 0.13
 2 11 8 0.02 0.11
 2 12 2 5.14 0.13
 2 12 3 4 0.13
 2 12 4 0.24 0.12
 2 12 5 2.06 0.2
 2 12 6 0.21 0.18
 2 12 7 0.36 0.13
 2 12 8 0.28 0.17
 2 13 2 0.1 0.16
 2 13 3 0.15 0.16
 2 13 4 0.75 0.12
 2 13 5 0.04 0.16
 2 13 6 0.26 0.13
 2 13 7 0.04 0.14
 2 14 2 2.2 0.13
 2 14 3 1.83 0.13
 2 14 4 0.71 0.13
 2 14 5 0.04 0.15
 2 15 2 0.16 0.15
 2 15 3 0.45 0.11
 2 15 4 0.05 0.17
 3 0 3 13.17 0.37
 3 0 5 32.79 0.87
 3 0 7 0.29 0.2
 3 0 9 0.42 0.18
 3 0 11 0.05 0.2
 3 1 3 0.44 0.09
 3 1 4 13.77 0.65
 3 1 5 9.72 0.29
 3 1 6 7.53 0.15
 3 1 7 5.94 0.16
 3 1 8 0.1 0.19
 3 1 9 0.09 0.16
 3 1 10 0.69 0.12
 3 1 11 0.44 0.23
 3 2 3 1.3 0.26
 3 2 4 20.84 0.56
 3 2 5 0.05 0.17
 3 2 6 3.6 0.19
 3 2 7 2.9 0.14
 3 2 8 0.84 0.11
 3 2 9 1.61 0.14
 3 2 10 0.3 0.23
 3 2 11 0.01 0.05
 3 3 3 28.43 1.51
 3 3 4 0.81 0.17
 3 3 5 6.34 0.26
 3 3 6 10.01 0.64
 3 3 7 0.08 0.14
 3 3 8 1.76 0.21
 3 3 9 0.31 0.12
 3 3 10 0.04 0.16
 3 3 11 0.19 0.15
 3 4 3 0.16 0.14
 3 4 4 0.17 0.12
 3 4 5 0.26 0.11
 3 4 6 1.5 0.18
 3 4 7 1.43 0.12
 3 4 8 5.28 0.17
 3 4 9 0.93 0.12
 3 4 10 0.66 0.13
 3 4 11 0.02 0.09
 3 5 3 11.87 0.31
 3 5 4 8.22 0.73
 3 5 5 1.2 0.12
 3 5 6 0.15 0.18
 3 5 7 4.33 0.2
 3 5 8 0.2 0.17
 3 5 9 0.33 0.13
 3 5 10 0.05 0.17
 3 6 3 0.18 0.12
 3 6 4 4.22 0.3
 3 6 5 0.72 0.13
 3 6 6 4.95 0.26
 3 6 7 2.12 0.14
 3 6 8 1.74 0.24
 3 6 9 1.82 0.13
 3 6 10 0.21 0.15
 3 7 3 6.42 0.3
 3 7 4 0.14 0.19
 3 7 5 0.39 0.12
 3 7 6 1.7 0.11
 3 7 7 0.96 0.15
 3 7 8 0.71 0.21
 3 7 9 0.13 0.2
 3 7 10 0.21 0.17
 3 8 3 2.53 0.13
 3 8 4 2.11 0.13
 3 8 5 9.62 0.23
 3 8 6 0.22 0.11
 3 8 7 2.64 0.23
 3 8 8 0.54 0.18
 3 8 9 0.47 0.16
 3 9 3 1.74 0.14
 3 9 4 0.19 0.16
 3 9 5 0.8 0.11
 3 9 6 1.48 0.12
 3 9 7 0.16 0.15
 3 9 8 0.05 0.16
 3 9 9 0.23 0.13
 3 10 3 0.77 0.11
 3 10 4 4.98 0.13
 3 10 5 1.28 0.12
 3 10 6 2.73 0.23
 3 10 7 0.2 0.15
 3 10 8 0.08 0.22
 3 11 3 0.04 0.13
 3 11 4 3.11 0.25
 3 11 5 0.35 0.12
 3 11 6 0.12 0.2
 3 11 7 0.19 0.14
 3 12 3 0.21 0.13
 3 12 4 0.32 0.12
 3 12 5 1.04 0.12
 3 12 6 0.23 0.16
 3 12 7 0.02 0.08
 3 13 3 5.27 0.15
 3 13 4 0.05 0.17
 3 13 5 0.21 0.15
 3 13 6 0.12 0.18
 3 14 3 0.07 0.21
 3 14 4 0.15 0.14
 3 15 3 0.06 0.19
 4 0 4 4.33 0.18
 4 0 6 0.64 0.19
 4 0 8 0.16 0.19
 4 0 10 0.81 0.18
 4 1 4 0.05 0.17
 4 1 5 3.13 0.31
 4 1 6 1 0.13
 4 1 7 0.14 0.18
 4 1 8 0.47 0.11
 4 1 9 0.43 0.12
 4 1 10 0.55 0.13
 4 2 4 0.95 0.11
 4 2 5 1.47 0.12
 4 2 6 1.19 0.24
 4 2 7 0.12 0.18
 4 2 8 1.53 0.12
 4 2 9 0.27 0.14
 4 2 10 0.44 0.32
 4 3 4 1.57 0.31
 4 3 5 0.04 0.17
 4 3 6 0.07 0.19
 4 3 7 0.16 0.16
 4 3 8 0.11 0.18
 4 3 9 0.94 0.12
 4 3 10 0.06 0.2
 4 4 4 0.12 0.19
 4 4 5 0.11 0.17
 4 4 6 0.22 0.15
 4 4 7 3.97 0.13
 4 4 8 0.03 0.11
 4 4 9 0.87 0.12
 4 4 10 0.08 0.23
 4 5 4 8.95 0.75
 4 5 5 1.23 0.37
 4 5 6 0.68 0.12
 4 5 7 0.42 0.11
 4 5 8 0.71 0.12
 4 5 9 0.11 0.19
 4 6 4 1.85 0.13
 4 6 5 0.72 0.13
 4 6 6 1.27 0.11
 4 6 7 0.32 0.12
 4 6 8 1.79 0.13
 4 6 9 0.12 0.2
 4 7 4 2.25 0.11
 4 7 5 2.48 0.23
 4 7 6 3.01 0.34
 4 7 7 0.74 0.12
 4 7 8 0.08 0.23
 4 7 9 0.11 0.22
 4 8 4 2.61 0.12
 4 8 5 0.13 0.14
 4 8 6 0.36 0.13
 4 8 7 0.38 0.13
 4 8 8 0.03 0.13
 4 9 4 1.55 0.18
 4 9 5 4.4 0.14
 4 9 6 0.8 0.19
 4 9 7 0.68 0.13
 4 9 8 0.1 0.21
 4 10 4 0.08 0.21
 4 10 5 0.78 0.25
 4 10 6 0.07 0.21
 4 10 7 0.05 0.18
 4 11 4 1.2 0.15
 4 11 5 0.38 0.25
 4 11 6 1.04 0.25
 4 12 4 0.78 0.12
 4 12 5 0.13 0.18
 4 13 4 0.11 0.2
 5 0 5 0.19 0.17
 5 0 7 0.11 0.22
 5 0 9 0.4 0.19
 5 1 5 3.73 0.21
 5 1 6 2.65 0.24
 5 1 7 0.21 0.13
 5 1 8 0.35 0.13
 5 1 9 0.11 0.18
 5 2 5 0.09 0.21
 5 2 6 0.17 0.16
 5 2 7 0.25 0.13
 5 2 8 0.12 0.2
 5 2 9 0.22 0.16
 5 3 5 2.26 0.19
 5 3 6 0.28 0.14
 5 3 7 0.97 0.17
 5 3 8 0.2 0.15
 5 3 9 0.32 0.14
 5 4 5 0.56 0.11
 5 4 6 0.44 0.12
 5 4 7 0.2 0.14
 5 4 8 0.18 0.2
 5 4 9 0.08 0.22
 5 5 5 0.05 0.15
 5 5 6 0.07 0.2
 5 5 7 0.39 0.13
 5 5 8 0.36 0.13
 5 6 5 0.15 0.15
 5 6 6 0.29 0.13
 5 6 7 0.47 0.17
 5 6 8 0.18 0.2
 5 7 5 0.91 0.19
 5 7 6 0.07 0.2
 5 7 7 0.09 0.19
 5 7 8 0.28 0.14
 5 8 5 0.56 0.12
 5 8 6 0.19 0.19
 5 8 7 0.16 0.2
 5 9 5 0.04 0.15
 5 9 6 0.67 0.13
 5 9 7 0.06 0.15
 5 10 5 0.17 0.2
 5 10 6 0.38 0.16
 5 11 5 0.69 0.16
 6 0 6 2.29 0.18
 6 0 8 0.05 0.21
 6 1 6 0.22 0.13
 6 1 7 0.17 0.15
 6 1 8 0.05 0.17
 6 2 6 0.01 0.05
 6 2 7 0.49 0.13
 6 2 8 0.22 0.15
 6 3 6 0.41 0.13
 6 3 7 0.36 0.13
 6 4 6 0.51 0.13
 6 4 7 0.04 0.13
 6 5 6 0.28 0.14
 6 5 7 0.09 0.24
 6 6 6 0.17 0.2
 6 6 7 0.26 0.17
 6 7 6 0.03 0.13
 6 8 6 0.17 0.17

_iucr_refine_fcf_details
;
data_olex2socket
_computing_structure_refinement   'olex2.refine 1.5-dev (Bourhis et al., 2015)'
_shelx_refln_list_code            4
loop_
  _space_group_symop_id
  _space_group_symop_operation_xyz
  1  x,y,z
  2  -x+1/2,y+1/2,-z+1/2
  3  -x,-y,-z
  4  x-1/2,-y-1/2,z-1/2

_space_group_crystal_system       monoclinic
_space_group_IT_number            14
_space_group_name_H-M_alt         'P 1 21/n 1'
_space_group_name_Hall            '-P 2ybc (x-z,y,z)'
_symmetry_space_group_name_H-M    'P 1 21/n 1'
_symmetry_space_group_name_Hall   '-P 2ybc (x-z,y,z)'
_symmetry_Int_Tables_number       14
_cell_length_a                    4.633(5)
_cell_length_b                    8.400(1)
_cell_length_c                    6.577(3)
_cell_angle_alpha                 90
_cell_angle_beta                  100.37(6)
_cell_angle_gamma                 90
_cell_volume                      251.8(3)
loop_
  _refln_index_h
  _refln_index_k
  _refln_index_l
  _refln_F_squared_calc
  _refln_F_squared_meas
  _refln_F_squared_sigma
  _refln_F_squared_weight
  _refln_observed_status
-9 0 1 0.112 0.149 0.228 59.831 o
-9 0 3 0.044 0.030 0.169 110.533 o
-9 0 5 0.181 0.248 0.199 77.168 o
-9 1 0 0.006 0.079 0.189 88.898 o
-9 1 1 0.090 0.069 0.208 72.078 o
-9 1 2 0.015 0.030 0.139 163.486 o
-9 1 3 0.001 0.189 0.159 123.529 o
-9 1 4 0.078 0.199 0.189 86.949 o
-9 2 0 0.003 0.089 0.228 60.795 o
-9 2 1 0.008 0.040 0.149 142.661 o
-9 2 2 0.053 0.129 0.199 79.417 o
-9 2 3 0.017 0.169 0.199 79.608 o
-9 2 4 0.056 0.089 0.199 79.618 o
-9 3 1 0.001 0.069 0.218 66.514 o
-9 3 2 0.011 0.010 0.069 646.874 o
-9 3 3 0.089 0.060 0.199 79.408 o
-8 0 -4 0.228 0.119 0.248 50.297 o
-8 0 -2 0.000 0.069 0.258 47.684 o
-8 0 0 2.443 1.956 0.179 52.270 o
-8 0 2 3.256 3.385 0.199 36.571 o
-8 0 4 0.526 0.427 0.169 95.808 o
-8 0 6 0.681 0.635 0.179 82.589 o
-8 0 8 1.205 1.290 0.199 60.205 o
-8 1 -4 0.000 0.169 0.199 79.815 o
-8 1 -3 0.003 0.129 0.199 80.016 o
-8 1 -2 0.260 0.159 0.179 93.659 o
-8 1 -1 0.000 0.129 0.189 88.613 o
-8 1 0 0.072 0.020 0.109 256.765 o
-8 1 1 0.236 0.199 0.139 149.035 o
-8 1 2 0.630 0.566 0.179 83.971 o
-8 1 3 0.420 0.467 0.347 25.512 o
-8 1 4 0.303 0.437 0.208 68.171 o
-8 1 5 0.002 0.139 0.199 79.967 o
-8 1 6 0.117 0.139 0.169 107.617 o
-8 1 7 0.068 0.129 0.199 79.235 o
-8 1 8 0.009 0.050 0.189 89.069 o
-8 2 -4 0.002 0.199 0.199 79.617 o
-8 2 -3 0.082 0.179 0.159 121.340 o
-8 2 -2 0.000 0.060 0.199 80.477 o
-8 2 -1 0.499 0.437 0.129 149.720 o
-8 2 0 0.065 0.020 0.099 309.245 o
-8 2 1 2.758 2.511 0.685 6.309 o
-8 2 2 0.006 0.109 0.199 80.105 o
-8 2 3 1.048 1.042 0.338 25.483 o
-8 2 4 0.597 0.625 0.119 157.827 o
-8 2 5 0.262 0.347 0.208 69.004 o
-8 2 6 0.242 0.218 0.139 148.347 o
-8 2 7 0.902 0.963 0.129 121.311 o
-8 2 8 0.032 0.010 0.050 1187.440 o
-8 3 -3 0.298 0.367 0.238 53.303 o
-8 3 -2 0.053 0.149 0.208 72.049 o
-8 3 -1 1.054 0.903 0.139 106.503 o
-8 3 0 0.116 0.328 0.129 173.512 o
-8 3 1 0.003 0.060 0.199 80.443 o
-8 3 2 0.048 0.159 0.189 87.687 o
-8 3 3 0.641 0.834 0.328 27.852 o
-8 3 4 0.000 0.238 0.179 97.615 o
-8 3 5 0.009 0.040 0.169 111.213 o
-8 3 6 0.000 0.139 0.169 110.278 o
-8 3 7 0.001 0.050 0.179 99.323 o
-8 3 8 0.004 0.119 0.218 66.285 o
-8 4 -3 0.006 0.089 0.228 60.770 o
-8 4 -2 0.041 0.069 0.208 72.570 o
-8 4 -1 0.058 0.099 0.208 72.254 o
-8 4 0 0.654 0.645 0.199 69.407 o
-8 4 1 0.161 0.089 0.189 86.540 o
-8 4 2 0.622 0.645 0.119 155.868 o
-8 4 3 0.384 0.278 0.129 159.751 o
-8 4 4 0.128 0.099 0.199 78.698 o
-8 4 5 1.098 1.122 0.228 49.784 o
-8 4 6 0.247 0.248 0.139 147.437 o
-8 4 7 0.001 0.040 0.159 125.683 o
-8 5 -3 0.001 0.109 0.189 88.742 o
-8 5 -2 0.923 0.735 0.189 71.685 o
-8 5 -1 0.075 0.099 0.159 122.660 o
-8 5 0 0.629 0.635 0.318 29.731 o
-8 5 1 0.008 0.159 0.199 79.779 o
-8 5 2 0.067 0.099 0.238 55.453 o
-8 5 3 0.186 0.069 0.208 71.133 o
-8 5 4 0.156 0.357 0.129 170.240 o
-8 5 5 0.005 0.060 0.199 80.420 o
-8 5 6 0.008 0.159 0.199 79.786 o
-8 5 7 0.175 0.218 0.189 85.401 o
-8 6 -2 0.000 0.179 0.159 123.691 o
-8 6 -1 0.084 0.020 0.119 215.990 o
-8 6 0 0.306 0.238 0.179 92.167 o
-8 6 1 0.035 0.159 0.208 72.183 o
-8 6 2 0.029 0.218 0.189 87.520 o
-8 6 3 0.022 0.238 0.189 87.479 o
-8 6 4 0.578 0.586 0.139 127.315 o
-8 6 5 0.094 0.228 0.149 135.968 o
-8 6 6 0.105 0.099 0.208 71.781 o
-8 7 -1 0.457 0.467 0.129 151.094 o
-8 7 0 0.009 0.060 0.199 80.366 o
-8 7 1 0.055 0.218 0.189 87.142 o
-8 7 2 0.491 0.606 0.129 146.043 o
-8 7 3 0.030 0.199 0.149 138.868 o
-8 7 4 0.108 0.099 0.179 96.922 o
-8 7 5 0.031 0.069 0.218 66.266 o
-8 8 1 0.289 0.278 0.139 144.977 o
-8 8 2 0.021 0.129 0.199 79.801 o
-8 8 3 0.000 0.129 0.199 80.056 o
-7 0 -5 0.599 0.566 0.179 84.469 o
-7 0 -3 0.738 0.596 0.159 99.089 o
-7 0 -1 0.121 0.119 0.208 71.527 o
-7 0 1 0.045 0.089 0.258 47.452 o
-7 0 3 4.186 4.328 0.189 30.781 o
-7 0 5 0.838 0.903 0.169 85.308 o
-7 0 7 0.597 0.625 0.189 76.652 o
-7 0 9 0.001 0.119 0.238 55.782 o
-7 1 -6 0.020 0.050 0.179 98.980 o
-7 1 -5 0.150 0.228 0.248 50.417 o
-7 1 -4 0.093 0.169 0.179 96.553 o
-7 1 -3 0.000 0.099 0.159 124.847 o
-7 1 -2 0.561 0.546 0.119 162.242 o
-7 1 -1 0.592 0.506 0.119 161.577 o
-7 1 0 4.259 3.891 0.883 3.765 o
-7 1 1 5.876 5.549 1.092 2.451 o
-7 1 2 5.699 5.767 0.913 3.388 o
-7 1 3 1.988 2.085 0.218 43.939 o
-7 1 4 0.476 0.546 0.159 105.940 o
-7 1 5 0.747 0.675 0.119 148.301 o
-7 1 6 0.212 0.218 0.119 197.134 o
-7 1 7 0.386 0.516 0.119 174.060 o
-7 1 8 0.075 0.089 0.199 79.387 o
-7 1 9 0.041 0.010 0.069 624.519 o
-7 1 10 0.134 0.199 0.169 106.573 o
-7 2 -6 0.034 0.159 0.159 123.006 o
-7 2 -5 0.027 0.308 0.238 55.078 o
-7 2 -4 0.504 0.427 0.179 87.163 o
-7 2 -3 0.116 0.079 0.179 96.960 o
-7 2 -2 0.009 0.050 0.169 111.105 o
-7 2 -1 0.704 0.467 0.179 83.568 o
-7 2 0 0.138 0.030 0.109 248.091 o
-7 2 1 0.018 0.129 0.189 88.347 o
-7 2 2 1.573 1.628 0.228 45.181 o
-7 2 3 1.836 1.846 0.367 20.302 o
-7 2 4 3.276 3.335 0.218 33.420 o
-7 2 5 1.380 1.420 0.119 106.837 o
-7 2 6 0.007 0.069 0.199 80.326 o
-7 2 7 0.019 0.060 0.189 88.840 o
-7 2 8 0.062 0.099 0.169 109.322 o
-7 2 9 0.021 0.060 0.199 80.224 o
-7 2 10 0.389 0.268 0.159 111.718 o
-7 3 -6 0.287 0.208 0.149 129.533 o
-7 3 -5 0.009 0.030 0.129 189.740 o
-7 3 -4 0.010 0.109 0.208 72.675 o
-7 3 -3 0.450 0.417 0.139 135.414 o
-7 3 -2 0.142 0.169 0.129 176.717 o
-7 3 -1 1.897 1.777 0.119 87.294 o
-7 3 0 0.890 0.883 0.208 60.509 o
-7 3 1 2.550 2.581 0.467 12.669 o
-7 3 2 2.433 2.313 0.417 15.562 o
-7 3 3 1.330 1.191 0.119 112.358 o
-7 3 4 0.261 0.367 0.208 68.921 o
-7 3 5 0.277 0.407 0.189 82.580 o
-7 3 6 1.480 1.539 0.129 94.388 o
-7 3 7 0.006 0.099 0.169 110.595 o
-7 3 8 0.046 0.149 0.199 79.385 o
-7 3 9 0.306 0.278 0.189 83.090 o
-7 4 -6 0.069 0.109 0.298 35.630 o
-7 4 -5 0.001 0.129 0.199 80.043 o
-7 4 -4 0.016 0.060 0.189 88.884 o
-7 4 -3 0.003 0.040 0.159 125.621 o
-7 4 -2 0.660 0.566 0.189 76.202 o
-7 4 -1 0.099 0.199 0.149 136.313 o
-7 4 0 0.916 0.685 0.119 139.666 o
-7 4 1 0.212 0.417 0.119 189.571 o
-7 4 2 1.201 1.181 0.119 117.165 o
-7 4 3 2.582 2.710 0.199 42.848 o
-7 4 4 4.933 5.221 0.784 4.536 o
-7 4 5 1.394 1.459 0.189 61.852 o
-7 4 6 0.513 0.596 0.119 163.603 o
-7 4 7 0.227 0.099 0.199 77.510 o
-7 4 8 0.005 0.069 0.208 72.927 o
-7 4 9 0.403 0.377 0.129 156.103 o
-7 5 -5 0.161 0.050 0.179 96.402 o
-7 5 -4 0.084 0.099 0.179 97.360 o
-7 5 -3 0.084 0.040 0.149 139.777 o
-7 5 -2 0.815 0.764 0.248 45.691 o
-7 5 -1 0.036 0.129 0.179 97.961 o
-7 5 0 0.334 0.367 0.119 182.614 o
-7 5 1 0.599 0.387 0.129 146.127 o
-7 5 2 0.006 0.129 0.189 88.531 o
-7 5 3 0.003 0.060 0.179 99.190 o
-7 5 4 0.379 0.367 0.119 179.460 o
-7 5 5 1.209 1.479 0.129 102.682 o
-7 5 6 0.482 0.506 0.139 132.398 o
-7 5 7 0.051 0.248 0.139 156.424 o
-7 5 8 0.078 0.397 0.278 40.360 o
-7 5 9 0.309 0.338 0.129 162.156 o
-7 6 -5 0.001 0.099 0.248 51.483 o
-7 6 -4 0.307 0.199 0.159 114.811 o
-7 6 -3 0.017 0.010 0.089 392.914 o
-7 6 -2 0.171 0.109 0.179 95.696 o
-7 6 -1 0.774 0.586 0.159 98.391 o
-7 6 0 0.046 0.169 0.179 97.402 o
-7 6 1 0.000 0.129 0.179 98.611 o
-7 6 2 0.834 0.883 0.328 27.451 o
-7 6 3 3.305 3.345 0.139 47.267 o
-7 6 4 1.297 1.459 0.129 100.456 o
-7 6 5 1.461 1.608 0.129 93.990 o
-7 6 6 1.374 1.489 0.218 50.104 o
-7 6 7 0.040 0.169 0.159 122.690 o
-7 6 8 1.223 1.062 0.129 108.608 o
-7 7 -4 0.019 0.367 0.278 40.597 o
-7 7 -3 0.212 0.149 0.208 70.478 o
-7 7 -2 0.010 0.099 0.179 98.703 o
-7 7 -1 0.061 0.149 0.159 122.353 o
-7 7 0 0.041 0.109 0.208 72.370 o
-7 7 1 0.661 0.625 0.119 154.283 o
-7 7 2 0.033 0.129 0.179 98.009 o
-7 7 3 0.165 0.119 0.179 95.710 o
-7 7 4 0.210 0.238 0.179 93.847 o
-7 7 5 0.679 0.586 0.119 154.355 o
-7 7 6 0.076 0.208 0.179 96.504 o
-7 7 7 0.137 0.040 0.159 121.745 o
-7 7 8 0.087 0.199 0.189 86.822 o
-7 8 -3 0.395 0.526 0.129 152.723 o
-7 8 -2 0.014 0.179 0.159 123.293 o
-7 8 -1 0.007 0.040 0.129 189.512 o
-7 8 0 0.072 0.020 0.109 256.724 o
-7 8 1 0.337 0.347 0.129 160.409 o
-7 8 2 0.564 0.655 0.169 92.775 o
-7 8 3 0.214 0.228 0.208 70.068 o
-7 8 4 0.932 0.844 0.119 135.177 o
-7 8 5 0.673 0.804 0.119 148.807 o
-7 8 6 0.014 0.179 0.149 139.810 o
-7 8 7 1.767 1.846 0.129 83.841 o
-7 9 -2 0.044 0.139 0.208 72.193 o
-7 9 -1 0.133 0.149 0.208 71.256 o
-7 9 0 0.425 0.566 0.298 34.172 o
-7 9 1 0.050 0.139 0.169 109.148 o
-7 9 2 1.050 0.834 0.119 130.179 o
-7 9 3 0.000 0.060 0.199 80.475 o
-7 9 4 0.034 0.099 0.238 55.649 o
-7 9 5 0.013 0.030 0.109 263.575 o
-7 9 6 0.435 0.467 0.129 152.174 o
-7 10 -1 0.008 0.129 0.199 79.957 o
-7 10 0 0.244 0.159 0.199 76.957 o
-7 10 1 0.070 0.139 0.199 79.154 o
-7 10 2 0.030 0.189 0.199 79.340 o
-7 10 3 0.154 0.288 0.189 85.201 o
-7 10 4 0.002 0.020 0.119 223.476 o
-7 10 5 0.014 0.060 0.179 98.998 o
-6 0 -4 5.119 3.981 0.189 27.535 o
-6 0 -2 1.075 0.814 0.189 69.288 o
-6 0 0 2.153 2.283 0.208 44.810 o
-6 0 2 8.218 8.666 0.238 12.756 o
-6 0 4 0.580 0.566 0.179 84.781 o
-6 0 6 20.115 19.288 0.526 2.842 o
-6 0 8 7.470 7.584 0.208 15.490 o
-6 0 10 0.253 0.218 0.199 76.493 o
-6 1 -5 0.759 0.546 0.129 135.287 o
-6 1 -4 1.994 1.638 0.109 92.325 o
-6 1 -3 1.602 1.102 0.109 113.228 o
-6 1 -2 1.416 0.983 0.099 133.520 o
-6 1 -1 0.014 0.010 0.089 393.701 o
-6 1 0 0.793 0.675 0.179 80.533 o
-6 1 1 1.080 1.221 0.208 57.313 o
-6 1 2 0.125 0.238 0.218 64.789 o
-6 1 3 0.120 0.109 0.208 71.583 o
-6 1 4 7.977 9.162 0.486 7.413 o
-6 1 5 0.521 0.685 0.189 77.273 o
-6 1 6 1.179 1.191 0.139 99.048 o
-6 1 7 0.147 0.278 0.119 199.880 o
-6 1 8 0.911 0.814 0.119 136.849 o
-6 1 9 0.069 0.218 0.129 179.699 o
-6 1 10 0.029 0.040 0.149 141.842 o
-6 1 11 0.183 0.248 0.119 198.191 o
-6 2 -5 3.063 2.591 0.427 14.335 o
-6 2 -4 0.195 0.099 0.199 77.894 o
-6 2 -3 1.747 1.469 0.208 50.768 o
-6 2 -2 3.257 2.750 0.119 55.191 o
-6 2 -1 0.271 0.407 0.268 42.593 o
-6 2 0 1.886 2.055 0.258 35.315 o
-6 2 1 3.623 4.189 0.208 31.271 o
-6 2 2 0.423 0.387 0.129 154.811 o
-6 2 3 1.449 1.767 0.129 92.258 o
-6 2 4 0.287 0.278 0.139 145.049 o
-6 2 5 7.880 7.663 0.606 5.907 o
-6 2 6 0.211 0.189 0.119 198.399 o
-6 2 7 11.414 11.376 0.397 6.646 o
-6 2 8 0.050 0.199 0.149 138.098 o
-6 2 9 1.092 0.933 0.119 126.319 o
-6 2 10 0.623 0.655 0.149 111.934 o
-6 2 11 0.098 0.218 0.169 107.166 o
-6 3 -5 0.068 0.069 0.139 159.862 o
-6 3 -4 0.304 0.248 0.129 164.925 o
-6 3 -3 2.595 2.482 0.119 66.451 o
-6 3 -2 0.083 0.030 0.139 160.114 o
-6 3 -1 0.297 0.139 0.208 69.688 o
-6 3 0 0.000 0.109 0.179 98.792 o
-6 3 1 0.078 0.228 0.129 178.875 o
-6 3 2 0.031 0.089 0.189 88.452 o
-6 3 3 12.089 14.821 0.268 6.722 o
-6 3 4 0.186 0.457 0.189 83.519 o
-6 3 5 12.743 13.113 0.685 3.687 o
-6 3 6 0.088 0.159 0.169 108.055 o
-6 3 7 0.000 0.050 0.169 111.307 o
-6 3 8 0.048 0.089 0.169 109.755 o
-6 3 9 0.844 0.824 0.119 139.777 o
-6 3 10 0.172 0.139 0.208 70.922 o
-6 3 11 0.017 0.159 0.179 98.035 o
-6 4 -5 0.025 0.089 0.149 141.071 o
-6 4 -4 0.633 0.536 0.119 158.337 o
-6 4 -3 2.127 2.114 0.119 78.389 o
-6 4 -2 0.030 0.020 0.109 262.035 o
-6 4 -1 6.716 6.244 0.169 19.960 o
-6 4 0 0.115 0.248 0.179 95.447 o
-6 4 1 0.018 0.159 0.189 88.122 o
-6 4 2 0.671 1.003 0.129 129.463 o
-6 4 3 2.192 2.194 0.268 32.047 o
-6 4 4 0.573 0.675 0.109 177.717 o
-6 4 5 0.115 0.169 0.159 120.545 o
-6 4 6 3.933 3.772 0.476 11.104 o
-6 4 7 0.375 0.298 0.119 182.196 o
-6 4 8 0.981 1.052 0.109 141.354 o
-6 4 9 0.813 0.794 0.318 29.189 o
-6 4 10 0.060 0.129 0.189 87.726 o
-6 5 -5 0.000 0.069 0.208 72.971 o
-6 5 -4 0.379 0.467 0.109 201.421 o
-6 5 -3 0.099 0.099 0.179 97.084 o
-6 5 -2 1.470 1.161 0.119 108.112 o
-6 5 -1 0.320 0.228 0.119 188.603 o
-6 5 0 0.630 0.675 0.119 154.593 o
-6 5 1 1.597 1.558 0.119 98.069 o
-6 5 2 6.777 7.068 0.139 19.858 o
-6 5 3 0.004 0.159 0.159 123.871 o
-6 5 4 17.743 18.355 0.367 3.789 o
-6 5 5 0.490 0.526 0.109 189.652 o
-6 5 6 3.062 3.345 0.129 51.782 o
-6 5 7 0.263 0.179 0.139 148.300 o
-6 5 8 0.398 0.536 0.119 172.621 o
-6 5 9 0.681 0.625 0.179 82.676 o
-6 5 10 0.105 0.218 0.149 135.743 o
-6 6 -5 0.000 0.159 0.189 88.392 o
-6 6 -4 0.004 0.030 0.109 264.766 o
-6 6 -3 0.005 0.030 0.119 222.719 o
-6 6 -2 2.999 2.650 0.129 56.593 o
-6 6 -1 0.006 0.149 0.149 140.652 o
-6 6 0 1.182 1.211 0.119 117.330 o
-6 6 1 0.055 0.020 0.089 380.758 o
-6 6 2 1.580 1.360 0.119 101.494 o
-6 6 3 0.353 0.238 0.119 185.834 o
-6 6 4 0.129 0.189 0.169 106.788 o
-6 6 5 0.266 0.347 0.119 188.205 o
-6 6 6 1.659 1.747 0.119 93.757 o
-6 6 7 0.000 0.109 0.179 98.792 o
-6 6 8 0.011 0.189 0.179 97.864 o
-6 6 9 0.002 0.109 0.159 124.656 o
-6 6 10 0.650 0.625 0.129 138.282 o
-6 7 -5 0.034 0.069 0.218 66.238 o
-6 7 -4 0.543 0.417 0.189 78.790 o
-6 7 -3 0.338 0.189 0.139 144.767 o
-6 7 -2 0.021 0.764 0.506 12.311 o
-6 7 -1 0.878 0.675 0.119 141.726 o
-6 7 0 3.175 3.087 0.248 29.985 o
-6 7 1 2.879 2.799 0.298 24.938 o
-6 7 2 2.122 2.283 0.119 76.778 o
-6 7 3 8.276 8.080 0.506 7.184 o
-6 7 4 0.129 0.139 0.139 155.330 o
-6 7 5 4.247 4.090 0.129 38.071 o
-6 7 6 0.050 0.218 0.169 108.245 o
-6 7 7 0.037 0.040 0.169 110.578 o
-6 7 8 1.383 1.231 0.119 109.862 o
-6 7 9 0.054 0.050 0.159 124.005 o
-6 8 -5 0.305 0.427 0.129 159.984 o
-6 8 -4 0.111 0.189 0.149 136.069 o
-6 8 -3 0.005 0.010 0.050 1263.690 o
-6 8 -2 0.010 0.119 0.179 98.511 o
-6 8 -1 0.308 0.298 0.139 143.706 o
-6 8 0 0.017 0.030 0.139 163.387 o
-6 8 1 0.376 0.367 0.129 157.784 o
-6 8 2 1.027 0.854 0.169 82.411 o
-6 8 3 0.458 0.467 0.119 171.014 o
-6 8 4 0.278 0.318 0.119 188.397 o
-6 8 5 1.077 1.132 0.129 112.212 o
-6 8 6 0.452 0.516 0.119 169.783 o
-6 8 7 1.060 1.310 0.129 109.851 o
-6 8 8 0.183 0.298 0.139 149.191 o
-6 8 9 0.018 0.159 0.179 98.013 o
-6 9 -5 0.267 0.288 0.139 145.723 o
-6 9 -4 0.000 0.040 0.169 111.424 o
-6 9 -3 0.494 0.467 0.189 79.126 o
-6 9 -2 0.154 0.169 0.149 134.882 o
-6 9 -1 0.632 0.685 0.268 40.688 o
-6 9 0 1.122 0.883 0.268 38.428 o
-6 9 1 3.441 3.276 0.437 13.263 o
-6 9 2 2.222 2.085 0.278 30.467 o
-6 9 3 0.266 0.298 0.119 190.034 o
-6 9 4 0.965 1.132 0.119 127.445 o
-6 9 5 0.002 0.079 0.169 110.911 o
-6 9 6 0.047 0.139 0.179 97.666 o
-6 9 7 0.871 0.893 0.179 77.673 o
-6 9 8 0.017 0.149 0.149 140.258 o
-6 10 -4 0.279 0.318 0.139 144.524 o
-6 10 -3 0.023 0.079 0.228 60.691 o
-6 10 -2 0.145 0.169 0.159 119.680 o
-6 10 -1 0.286 0.199 0.189 83.933 o
-6 10 0 0.288 0.298 0.129 164.434 o
-6 10 1 0.198 0.159 0.149 133.506 o
-6 10 2 0.243 0.199 0.139 148.743 o
-6 10 3 0.776 0.854 0.119 142.318 o
-6 10 4 0.309 0.308 0.129 163.004 o
-6 10 5 0.131 0.189 0.189 86.255 o
-6 10 6 1.086 1.221 0.179 72.218 o
-6 10 7 0.477 0.516 0.129 148.891 o
-6 11 -3 0.003 0.129 0.208 72.647 o
-6 11 -2 0.006 0.189 0.199 79.631 o
-6 11 -1 0.190 0.169 0.199 77.543 o
-6 11 0 0.877 0.893 0.119 136.586 o
-6 11 1 0.701 0.735 0.357 23.624 o
-6 11 2 0.485 0.228 0.149 122.648 o
-6 11 3 0.035 0.069 0.199 79.992 o
-6 11 4 0.002 0.139 0.208 72.607 o
-6 11 5 0.142 0.208 0.169 106.278 o
-6 11 6 0.158 0.506 0.347 25.849 o
-6 12 -1 0.419 0.467 0.149 120.944 o
-6 12 0 0.137 0.099 0.248 50.803 o
-6 12 1 0.119 0.208 0.149 135.422 o
-6 12 2 0.283 0.417 0.129 161.413 o
-6 12 3 0.140 0.089 0.199 78.612 o
-6 12 4 0.028 0.129 0.189 88.195 o
-5 0 -3 7.119 6.661 0.218 16.611 o
-5 0 -1 0.634 0.308 0.159 104.996 o
-5 0 1 18.489 20.072 0.496 3.096 o
-5 0 3 2.034 2.204 0.149 66.228 o
-5 0 5 10.851 11.316 0.278 8.374 o
-5 0 7 0.496 0.754 0.189 77.142 o
-5 0 9 2.276 2.263 0.169 55.536 o
-5 0 11 0.044 0.069 0.238 55.678 o
-5 1 -4 7.036 6.909 0.159 18.714 o
-5 1 -3 1.615 1.310 0.189 60.270 o
-5 1 -2 0.099 0.199 0.169 107.350 o
-5 1 -1 10.211 8.676 0.159 11.761 o
-5 1 0 6.838 6.323 0.903 3.352 o
-5 1 1 7.569 7.713 0.338 11.383 o
-5 1 2 4.210 4.060 0.119 39.612 o
-5 1 3 0.138 0.298 0.189 85.359 o
-5 1 4 7.596 7.802 0.149 16.782 o
-5 1 5 5.568 6.045 0.169 23.616 o
-5 1 6 19.248 20.846 0.407 3.169 o
-5 1 7 17.432 19.089 0.338 3.874 o
-5 1 8 7.643 7.604 0.377 10.320 o
-5 1 9 1.682 1.777 0.129 86.537 o
-5 1 10 0.051 0.099 0.179 97.955 o
-5 1 11 0.382 0.338 0.129 158.239 o
-5 1 12 0.117 0.218 0.129 176.719 o
-5 2 -4 2.550 3.087 0.308 24.226 o
-5 2 -3 5.916 6.065 0.427 10.783 o
-5 2 -2 7.667 7.147 0.635 5.636 o
-5 2 -1 6.971 6.254 0.199 18.102 o
-5 2 0 0.726 0.963 0.099 176.149 o
-5 2 1 0.130 0.189 0.119 204.897 o
-5 2 2 5.776 6.323 0.139 24.068 o
-5 2 3 0.605 0.814 0.109 170.645 o
-5 2 4 3.725 4.209 0.129 41.523 o
-5 2 5 2.871 3.316 0.129 54.111 o
-5 2 6 4.473 4.676 0.149 32.713 o
-5 2 7 0.093 0.109 0.169 108.502 o
-5 2 8 1.146 0.963 0.139 103.024 o
-5 2 9 2.699 2.392 0.119 65.505 o
-5 2 10 1.083 1.052 0.119 124.241 o
-5 2 11 0.570 0.606 0.129 142.365 o
-5 3 -4 1.410 1.499 0.139 89.526 o
-5 3 -3 2.013 2.373 0.357 20.646 o
-5 3 -2 3.859 4.139 0.308 20.392 o
-5 3 -1 0.014 0.050 0.179 99.083 o
-5 3 0 15.788 14.116 0.347 4.905 o
-5 3 1 2.885 2.541 0.208 39.320 o
-5 3 2 0.297 0.278 0.109 217.636 o
-5 3 3 12.012 12.667 0.238 7.602 o
-5 3 4 2.059 2.283 0.119 78.044 o
-5 3 5 14.614 15.367 0.298 5.349 o
-5 3 6 6.545 6.869 0.576 6.843 o
-5 3 7 5.388 5.400 0.179 24.687 o
-5 3 8 5.211 5.261 0.199 24.114 o
-5 3 9 0.638 0.665 0.218 58.854 o
-5 3 10 0.097 0.119 0.189 87.261 o
-5 3 11 0.020 0.060 0.189 88.831 o
-5 4 -4 2.977 3.008 0.208 37.455 o
-5 4 -3 5.716 6.552 0.903 3.426 o
-5 4 -2 16.853 17.273 1.390 1.239 o
-5 4 -1 5.587 5.519 0.139 26.291 o
-5 4 0 2.405 2.541 0.119 69.120 o
-5 4 1 0.506 0.556 0.109 187.256 o
-5 4 2 0.094 0.040 0.149 139.426 o
-5 4 3 1.668 1.896 0.119 91.540 o
-5 4 4 4.431 5.231 0.139 32.379 o
-5 4 5 2.872 3.038 0.139 53.290 o
-5 4 6 1.670 1.946 0.139 79.277 o
-5 4 7 0.253 0.298 0.109 221.000 o
-5 4 8 3.851 3.534 0.129 43.257 o
-5 4 9 1.960 1.936 0.278 31.541 o
-5 4 10 3.642 3.464 0.129 45.397 o
-5 4 11 0.255 0.288 0.179 92.621 o
-5 5 -4 0.000 0.010 0.060 890.819 o
-5 5 -3 0.462 0.635 0.129 146.703 o
-5 5 -2 0.806 1.152 0.139 110.180 o
-5 5 -1 9.188 8.845 0.625 5.212 o
-5 5 0 0.825 0.923 0.139 113.144 o
-5 5 1 1.375 1.360 0.169 72.749 o
-5 5 2 3.802 3.842 0.129 42.385 o
-5 5 3 4.306 4.676 0.476 10.636 o
-5 5 4 10.587 10.969 0.258 8.938 o
-5 5 5 0.007 0.050 0.179 99.211 o
-5 5 6 1.022 0.963 0.109 141.537 o
-5 5 7 3.281 3.236 0.119 52.031 o
-5 5 8 0.021 0.308 0.258 47.086 o
-5 5 9 0.098 0.149 0.179 96.650 o
-5 5 10 0.166 0.179 0.149 134.295 o
-5 5 11 0.195 0.149 0.149 133.793 o
-5 6 -4 1.573 1.628 0.119 97.789 o
-5 6 -3 7.490 6.621 0.238 15.275 o
-5 6 -2 5.246 5.896 0.159 25.633 o
-5 6 -1 5.794 6.055 0.159 23.417 o
-5 6 0 9.637 10.086 0.665 4.606 o
-5 6 1 0.467 0.586 0.119 166.703 o
-5 6 2 8.931 9.976 0.476 6.995 o
-5 6 3 0.207 0.218 0.179 94.069 o
-5 6 4 1.897 2.263 0.129 76.851 o
-5 6 5 4.566 4.199 1.390 1.590 o
-5 6 6 0.446 0.457 0.109 196.078 o
-5 6 7 0.214 0.199 0.119 197.728 o
-5 6 8 1.598 1.588 0.119 97.618 o
-5 6 9 4.216 4.030 0.139 37.301 o
-5 6 10 0.584 0.625 0.129 141.274 o
-5 6 11 0.438 0.437 0.129 152.790 o
-5 7 -4 0.116 0.179 0.149 136.070 o
-5 7 -3 0.365 0.278 0.119 183.575 o
-5 7 -2 1.636 1.638 0.218 47.741 o
-5 7 -1 2.231 2.055 0.308 26.126 o
-5 7 0 1.886 2.015 0.139 74.573 o
-5 7 1 0.385 0.576 0.218 61.262 o
-5 7 2 0.097 0.467 0.298 35.122 o
-5 7 3 3.650 3.504 0.169 38.665 o
-5 7 4 0.116 0.298 0.159 118.698 o
-5 7 5 0.234 0.218 0.129 169.773 o
-5 7 6 0.853 0.705 0.119 142.200 o
-5 7 7 2.139 2.154 0.119 77.726 o
-5 7 8 0.276 0.248 0.129 166.527 o
-5 7 9 0.102 0.010 0.079 458.859 o
-5 7 10 0.022 0.099 0.169 110.239 o
-5 8 -4 0.500 0.536 0.109 188.523 o
-5 8 -3 0.830 0.953 0.238 48.449 o
-5 8 -2 2.129 1.807 0.119 81.628 o
-5 8 -1 4.921 4.457 0.467 10.675 o
-5 8 0 0.158 0.218 0.119 201.426 o
-5 8 1 14.327 13.520 1.588 1.068 o
-5 8 2 1.063 1.042 0.109 137.522 o
-5 8 3 5.180 5.301 0.347 14.943 o
-5 8 4 0.894 0.983 0.109 147.803 o
-5 8 5 0.486 0.427 0.119 170.482 o
-5 8 6 0.388 0.407 0.129 156.109 o
-5 8 7 1.527 1.568 0.119 99.980 o
-5 8 8 1.123 1.042 0.119 122.828 o
-5 8 9 0.192 0.268 0.119 196.723 o
-5 8 10 0.434 0.586 0.129 149.299 o
-5 9 -4 1.915 1.836 0.129 80.780 o
-5 9 -3 0.069 0.109 0.169 109.057 o
-5 9 -2 0.028 0.079 0.149 141.151 o
-5 9 -1 0.058 0.069 0.179 98.098 o
-5 9 0 1.981 1.966 0.119 83.138 o
-5 9 1 0.101 0.159 0.159 121.066 o
-5 9 2 0.054 0.218 0.169 108.154 o
-5 9 3 0.816 0.695 0.109 160.804 o
-5 9 4 0.202 0.347 0.109 223.578 o
-5 9 5 1.463 1.360 0.119 105.121 o
-5 9 6 2.346 2.234 0.258 33.150 o
-5 9 7 0.296 0.139 0.159 115.926 o
-5 9 8 1.397 1.628 0.179 65.460 o
-5 9 9 0.004 0.069 0.199 80.370 o
-5 10 -4 0.055 0.149 0.189 87.655 o
-5 10 -3 0.053 0.159 0.189 87.617 o
-5 10 -2 0.094 0.139 0.189 87.154 o
-5 10 -1 0.113 0.169 0.129 178.511 o
-5 10 0 4.238 4.378 0.437 12.259 o
-5 10 1 1.076 1.102 0.119 123.508 o
-5 10 2 5.897 6.075 0.804 4.195 o
-5 10 3 0.052 0.189 0.129 181.739 o
-5 10 4 0.009 0.169 0.139 160.337 o
-5 10 5 0.111 0.268 0.149 134.661 o
-5 10 6 1.554 1.519 0.119 99.917 o
-5 10 7 0.081 0.119 0.179 97.222 o
-5 10 8 0.034 0.050 0.129 187.411 o
-5 11 -4 0.000 0.030 0.139 164.211 o
-5 11 -3 0.278 0.427 0.179 91.008 o
-5 11 -2 0.138 0.119 0.189 86.654 o
-5 11 -1 0.455 0.397 0.189 80.152 o
-5 11 0 0.098 0.228 0.129 177.612 o
-5 11 1 0.241 0.218 0.129 169.347 o
-5 11 2 1.216 1.161 0.129 107.274 o
-5 11 3 0.052 0.050 0.169 110.104 o
-5 11 4 3.652 3.842 0.467 11.628 o
-5 11 5 0.525 0.576 0.119 163.488 o
-5 11 6 0.805 0.953 0.298 32.682 o
-5 11 7 1.247 1.519 0.228 47.545 o
-5 11 8 0.007 0.050 0.199 80.457 o
-5 12 -4 0.004 0.020 0.119 223.217 o
-5 12 -3 0.127 0.228 0.159 119.360 o
-5 12 -2 0.166 0.238 0.189 85.380 o
-5 12 -1 0.019 0.079 0.208 72.737 o
-5 12 0 0.248 0.139 0.199 77.029 o
-5 12 1 1.540 1.777 0.159 72.390 o
-5 12 2 0.024 0.169 0.189 87.959 o
-5 12 3 0.131 0.169 0.159 120.095 o
-5 12 4 0.002 0.129 0.159 124.351 o
-5 12 5 0.798 0.814 0.129 128.131 o
-5 12 6 0.076 0.139 0.159 122.063 o
-5 13 -2 0.015 0.109 0.189 88.540 o
-5 13 -1 0.383 0.457 0.129 155.083 o
-5 13 0 0.074 0.159 0.179 96.990 o
-5 13 1 0.076 0.199 0.169 107.872 o
-5 13 2 0.003 0.139 0.208 72.602 o
-5 13 3 2.700 2.720 0.208 39.894 o
-5 13 4 0.026 0.119 0.179 98.221 o
-5 13 5 1.459 1.658 0.129 93.398 o
-5 14 1 0.069 0.060 0.139 160.088 o
-5 14 2 0.038 0.169 0.228 60.273 o
-4 0 -2 13.228 12.766 0.318 6.284 o
-4 0 0 195.949 188.827 1.717 0.047 o
-4 0 2 107.142 111.140 1.290 0.141 o
-4 0 4 1.899 1.896 0.189 54.463 o
-4 0 6 5.363 5.847 0.189 23.369 o
-4 0 8 7.456 7.644 0.238 14.525 o
-4 0 10 0.615 0.556 0.159 102.457 o
-4 0 12 3.231 2.988 0.199 37.855 o
-4 1 -3 0.436 0.437 0.139 135.560 o
-4 1 -2 20.019 17.531 1.797 0.792 o
-4 1 -1 0.127 0.020 0.089 361.942 o
-4 1 0 1.656 1.171 0.099 118.497 o
-4 1 1 11.362 13.064 0.238 7.884 o
-4 1 2 37.952 41.117 0.576 0.977 o
-4 1 3 6.008 6.830 0.129 22.871 o
-4 1 4 2.604 2.809 0.099 69.788 o
-4 1 5 4.471 4.398 0.119 36.557 o
-4 1 6 5.785 6.006 0.139 24.605 o
-4 1 7 2.904 3.117 0.129 54.898 o
-4 1 8 0.231 0.079 0.208 70.636 o
-4 1 9 0.209 0.179 0.119 198.900 o
-4 1 10 3.680 3.187 0.258 26.834 o
-4 1 11 0.288 0.169 0.149 130.181 o
-4 1 12 0.210 0.149 0.149 133.248 o
-4 2 -3 0.150 0.159 0.119 204.456 o
-4 2 -2 1.497 1.211 0.199 57.754 o
-4 2 -1 58.233 52.890 0.675 0.500 o
-4 2 0 1.283 1.737 0.139 89.718 o
-4 2 1 126.379 124.273 1.420 0.106 o
-4 2 2 3.304 3.564 0.099 53.623 o
-4 2 3 14.016 14.305 0.278 5.895 o
-4 2 4 23.327 25.323 0.586 2.078 o
-4 2 5 0.634 1.032 0.109 161.624 o
-4 2 6 1.827 1.767 0.119 89.141 o
-4 2 7 7.668 8.110 0.159 16.076 o
-4 2 8 1.986 1.956 0.139 73.340 o
-4 2 9 0.693 0.715 0.109 168.053 o
-4 2 10 0.483 0.367 0.119 172.576 o
-4 2 11 2.141 1.916 0.149 66.761 o
-4 2 12 0.003 0.030 0.139 164.073 o
-4 3 -3 21.025 22.186 2.710 0.383 o
-4 3 -2 3.412 3.455 0.516 10.060 o
-4 3 -1 44.591 38.685 0.705 0.805 o
-4 3 0 2.643 2.680 0.298 25.656 o
-4 3 1 6.471 6.155 0.189 19.818 o
-4 3 2 0.014 0.139 0.109 256.480 o
-4 3 3 36.819 37.970 0.586 1.054 o
-4 3 4 1.897 1.717 0.109 93.909 o
-4 3 5 0.087 0.139 0.159 121.763 o
-4 3 6 0.730 0.784 0.119 146.390 o
-4 3 7 0.101 0.109 0.189 87.265 o
-4 3 8 0.068 0.109 0.159 122.724 o
-4 3 9 8.442 7.584 0.149 15.363 o
-4 3 10 0.021 0.020 0.099 317.363 o
-4 3 11 2.862 2.819 0.129 57.247 o
-4 3 12 0.000 0.060 0.189 89.122 o
-4 4 -3 5.071 4.874 0.258 20.757 o
-4 4 -2 3.604 3.723 0.268 25.158 o
-4 4 -1 0.647 0.824 0.099 187.942 o
-4 4 0 28.363 25.909 1.350 0.950 o
-4 4 1 2.722 2.482 0.099 70.627 o
-4 4 2 13.947 13.411 0.268 6.178 o
-4 4 3 23.628 25.849 0.834 1.660 o
-4 4 4 0.607 0.536 0.149 114.136 o
-4 4 5 19.309 20.767 0.367 3.265 o
-4 4 6 2.148 2.144 0.119 77.659 o
-4 4 7 1.389 1.360 0.129 99.259 o
-4 4 8 1.763 1.668 0.109 98.498 o
-4 4 9 3.555 3.266 0.129 47.126 o
-4 4 10 0.118 0.069 0.208 71.798 o
-4 4 11 0.006 0.129 0.159 124.247 o
-4 4 12 0.389 0.457 0.119 175.809 o
-4 5 -3 1.015 0.854 0.119 131.271 o
-4 5 -2 39.916 41.921 0.695 0.875 o
-4 5 -1 4.275 4.100 0.129 37.840 o
-4 5 0 7.507 7.326 0.258 14.051 o
-4 5 1 0.980 1.092 0.099 154.512 o
-4 5 2 20.517 19.953 0.347 3.178 o
-4 5 3 5.474 5.341 0.179 24.494 o
-4 5 4 11.726 12.200 0.208 8.199 o
-4 5 5 0.493 0.645 0.119 163.301 o
-4 5 6 1.456 1.469 0.129 95.942 o
-4 5 7 2.281 2.452 0.139 64.625 o
-4 5 8 7.932 7.197 0.228 14.445 o
-4 5 9 0.010 0.139 0.139 161.002 o
-4 5 10 6.584 6.254 0.467 9.203 o
-4 5 11 0.107 0.119 0.179 96.758 o
-4 6 -3 1.236 1.013 0.129 109.005 o
-4 6 -2 0.394 0.218 0.149 125.766 o
-4 6 -1 0.579 0.615 0.109 179.465 o
-4 6 0 9.768 9.540 0.179 11.490 o
-4 6 1 0.033 0.159 0.119 214.383 o
-4 6 2 0.030 0.139 0.149 139.937 o
-4 6 3 0.227 0.050 0.159 119.070 o
-4 6 4 17.448 17.570 0.576 3.168 o
-4 6 5 1.131 0.983 0.119 123.695 o
-4 6 6 0.277 0.377 0.129 162.862 o
-4 6 7 0.521 0.357 0.159 107.186 o
-4 6 8 4.496 4.378 0.129 35.456 o
-4 6 9 0.000 0.060 0.189 89.126 o
-4 6 10 0.231 0.298 0.129 167.660 o
-4 6 11 0.001 0.030 0.109 265.127 o
-4 7 -3 11.189 12.051 0.377 6.813 o
-4 7 -2 0.810 0.566 0.119 147.905 o
-4 7 -1 11.826 12.210 0.228 7.952 o
-4 7 0 0.113 0.119 0.179 96.647 o
-4 7 1 0.106 0.129 0.159 121.347 o
-4 7 2 9.718 9.837 0.248 10.287 o
-4 7 3 6.162 6.363 0.338 13.559 o
-4 7 4 0.005 0.060 0.189 89.053 o
-4 7 5 3.463 3.544 0.357 17.769 o
-4 7 6 10.227 9.907 0.546 5.673 o
-4 7 7 5.323 4.725 0.129 29.884 o
-4 7 8 1.876 1.787 0.129 82.134 o
-4 7 9 5.320 4.973 0.169 26.423 o
-4 7 10 0.148 0.129 0.199 78.272 o
-4 7 11 0.637 0.645 0.129 138.451 o
-4 8 -3 0.512 0.526 0.199 71.693 o
-4 8 -2 0.380 0.417 0.189 81.054 o
-4 8 -1 4.302 4.626 0.149 33.801 o
-4 8 0 3.216 2.879 0.139 50.441 o
-4 8 1 8.856 8.974 0.179 12.999 o
-4 8 2 1.141 1.102 0.129 110.606 o
-4 8 3 0.202 0.218 0.129 171.663 o
-4 8 4 1.577 1.479 0.159 74.180 o
-4 8 5 0.416 0.476 0.099 226.943 o
-4 8 6 0.621 0.665 0.109 174.711 o
-4 8 7 1.954 1.846 0.109 90.607 o
-4 8 8 0.162 0.367 0.119 195.254 o
-4 8 9 0.438 0.506 0.159 107.387 o
-4 8 10 0.002 0.050 0.159 125.509 o
-4 9 -3 0.716 0.695 0.109 167.189 o
-4 9 -2 1.019 1.142 0.139 104.082 o
-4 9 -1 0.000 0.050 0.159 125.569 o
-4 9 0 0.149 0.218 0.179 95.108 o
-4 9 1 4.610 5.073 0.159 30.067 o
-4 9 2 0.030 0.179 0.179 97.613 o
-4 9 3 2.267 2.243 0.248 35.298 o
-4 9 4 0.638 0.576 0.109 176.619 o
-4 9 5 5.643 5.758 0.149 25.028 o
-4 9 6 2.786 2.442 0.159 52.225 o
-4 9 7 6.033 6.462 0.685 5.413 o
-4 9 8 2.451 2.343 0.129 66.456 o
-4 9 9 0.022 0.268 0.129 181.115 o
-4 9 10 0.238 0.179 0.159 116.973 o
-4 10 -3 1.949 2.075 0.119 82.633 o
-4 10 -2 0.869 0.814 0.109 154.027 o
-4 10 -1 0.436 0.467 0.109 196.553 o
-4 10 0 6.496 6.184 0.139 21.923 o
-4 10 1 2.316 2.025 0.159 59.841 o
-4 10 2 3.622 3.504 0.427 13.517 o
-4 10 3 1.041 1.092 0.169 80.154 o
-4 10 4 0.728 0.645 0.347 24.942 o
-4 10 5 2.779 2.561 0.199 42.017 o
-4 10 6 1.157 0.745 0.119 127.512 o
-4 10 7 0.048 0.030 0.129 187.106 o
-4 10 8 0.221 0.159 0.179 94.355 o
-4 10 9 0.199 0.179 0.159 118.051 o
-4 11 -3 0.112 0.030 0.129 182.935 o
-4 11 -2 0.023 0.238 0.169 108.623 o
-4 11 -1 0.773 0.655 0.119 147.505 o
-4 11 0 0.474 0.645 0.119 164.476 o
-4 11 1 0.038 0.060 0.169 110.328 o
-4 11 2 1.867 2.104 0.218 44.645 o
-4 11 3 0.449 0.447 0.109 196.215 o
-4 11 4 0.380 0.238 0.119 183.922 o
-4 11 5 0.374 0.218 0.169 101.120 o
-4 11 6 3.339 3.544 0.129 47.877 o
-4 11 7 1.077 0.864 0.119 128.397 o
-4 11 8 0.242 0.367 0.119 189.203 o
-4 12 -3 0.290 0.308 0.129 164.037 o
-4 12 -2 0.339 0.476 0.119 178.481 o
-4 12 -1 1.306 1.142 0.129 104.822 o
-4 12 0 0.358 0.417 0.139 139.110 o
-4 12 1 1.867 1.717 0.159 67.891 o
-4 12 2 0.287 0.238 0.119 190.640 o
-4 12 3 1.997 1.926 0.169 60.609 o
-4 12 4 3.655 3.713 0.218 30.883 o
-4 12 5 1.652 1.519 0.149 78.093 o
-4 12 6 0.324 0.248 0.139 144.099 o
-4 12 7 0.136 0.179 0.169 106.758 o
-4 12 8 0.313 0.347 0.129 161.671 o
-4 13 -3 0.013 0.050 0.179 99.107 o
-4 13 -2 1.327 1.350 0.149 86.072 o
-4 13 -1 0.003 0.149 0.169 110.110 o
-4 13 0 0.317 0.169 0.189 83.701 o
-4 13 1 0.214 0.218 0.149 131.900 o
-4 13 2 0.752 0.913 0.119 142.072 o
-4 13 3 0.005 0.149 0.199 79.872 o
-4 13 4 0.123 0.218 0.169 106.594 o
-4 13 5 0.345 0.457 0.139 138.852 o
-4 13 6 0.399 0.407 0.149 122.522 o
-4 14 -3 0.266 0.179 0.179 93.380 o
-4 14 -2 0.273 0.407 0.208 68.606 o
-4 14 -1 0.041 0.040 0.169 110.473 o
-4 14 0 0.057 0.238 0.199 78.713 o
-4 14 1 0.137 0.199 0.139 153.541 o
-4 14 2 0.314 0.248 0.139 144.536 o
-4 14 3 1.745 2.075 0.129 81.847 o
-4 14 4 1.169 1.231 0.129 107.653 o
-4 14 5 0.839 0.903 0.129 124.787 o
-4 15 0 0.000 0.149 0.199 79.937 o
-4 15 1 0.079 0.030 0.109 255.269 o
-4 15 2 0.009 0.060 0.228 60.857 o
-3 0 -1 56.898 52.006 0.794 0.505 o
-3 0 1 1.779 1.886 0.099 101.094 o
-3 0 3 79.398 88.696 1.062 0.237 o
-3 0 5 1.562 1.807 0.129 89.011 o
-3 0 7 10.863 10.244 0.288 8.608 o
-3 0 9 0.334 0.288 0.169 101.248 o
-3 0 11 3.936 3.663 0.199 32.318 o
-3 1 -2 24.773 22.544 2.095 0.571 o
-3 1 -1 23.371 21.323 1.410 1.041 o
-3 1 0 169.540 156.972 7.276 0.032 o
-3 1 1 259.239 262.931 10.165 0.014 o
-3 1 2 141.303 150.917 4.874 0.053 o
-3 1 3 14.430 16.856 0.258 5.346 o
-3 1 4 1.516 1.231 0.536 10.503 o
-3 1 5 41.246 42.119 0.993 0.744 o
-3 1 6 15.646 16.379 0.318 4.752 o
-3 1 7 5.243 5.162 0.129 29.214 o
-3 1 8 3.173 3.167 0.129 51.541 o
-3 1 9 0.089 0.129 0.129 181.242 o
-3 1 10 1.982 1.598 0.179 58.797 o
-3 1 11 0.774 0.576 0.119 149.498 o
-3 1 12 1.588 1.499 0.089 122.987 o
-3 2 -2 4.202 4.209 0.298 20.432 o
-3 2 -1 17.606 16.042 0.675 2.889 o
-3 2 0 21.571 21.233 0.566 2.466 o
-3 2 1 5.145 4.398 0.159 29.150 o
-3 2 2 43.769 47.242 1.320 0.572 o
-3 2 3 81.007 78.908 2.641 0.171 o
-3 2 4 44.204 47.639 0.893 0.679 o
-3 2 5 15.220 15.327 0.288 5.196 o
-3 2 6 1.127 1.062 0.218 53.493 o
-3 2 7 0.052 0.069 0.189 88.285 o
-3 2 8 0.577 0.476 0.119 163.348 o
-3 2 9 0.026 0.228 0.189 87.504 o
-3 2 10 3.079 2.601 0.119 58.437 o
-3 2 11 0.181 0.189 0.169 105.642 o
-3 2 12 0.956 1.032 0.099 157.854 o
-3 3 -2 15.091 14.086 0.268 5.567 o
-3 3 -1 38.680 33.126 2.114 0.449 o
-3 3 0 47.453 41.702 3.852 0.170 o
-3 3 1 35.296 33.255 0.476 1.240 o
-3 3 2 68.822 63.819 0.874 0.353 o
-3 3 3 5.171 5.053 0.119 30.530 o
-3 3 4 17.767 18.017 0.288 4.074 o
-3 3 5 0.710 0.824 0.159 97.131 o
-3 3 6 14.652 14.195 0.248 5.824 o
-3 3 7 4.117 4.229 0.129 38.499 o
-3 3 8 1.971 2.214 0.208 46.322 o
-3 3 9 5.135 4.636 0.129 31.057 o
-3 3 10 0.809 0.844 0.109 156.696 o
-3 3 11 2.000 1.956 0.099 93.361 o
-3 3 12 0.625 0.566 0.099 201.159 o
-3 4 -2 13.804 12.806 0.218 6.705 o
-3 4 -1 1.654 3.862 2.363 0.568 o
-3 4 0 9.651 8.378 0.457 7.327 o
-3 4 1 14.440 13.768 0.625 3.704 o
-3 4 2 88.539 85.976 0.764 0.221 o
-3 4 3 57.963 62.291 0.814 0.444 o
-3 4 4 92.022 90.929 0.864 0.201 o
-3 4 5 14.151 15.436 0.397 4.919 o
-3 4 6 1.133 1.310 0.189 65.629 o
-3 4 7 0.837 0.874 0.109 154.163 o
-3 4 8 0.414 0.268 0.169 99.750 o
-3 4 9 1.698 1.380 0.109 105.046 o
-3 4 10 0.583 0.625 0.169 92.701 o
-3 4 11 0.722 0.735 0.099 185.467 o
-3 4 12 0.039 0.060 0.159 124.292 o
-3 5 -2 24.280 21.819 0.338 2.536 o
-3 5 -1 1.590 1.241 0.099 119.817 o
-3 5 0 0.619 0.427 0.089 237.363 o
-3 5 1 25.941 23.963 0.774 1.669 o
-3 5 2 0.810 0.943 0.089 189.779 o
-3 5 3 0.083 0.050 0.139 159.646 o
-3 5 4 3.243 2.869 0.109 56.839 o
-3 5 5 10.532 10.165 0.199 10.093 o
-3 5 6 1.361 1.201 0.109 120.636 o
-3 5 7 0.500 0.437 0.119 169.260 o
-3 5 8 2.613 2.194 0.149 58.497 o
-3 5 9 4.044 3.723 0.179 34.213 o
-3 5 10 2.333 1.896 0.119 76.417 o
-3 5 11 0.007 0.109 0.139 161.922 o
-3 5 12 0.030 0.129 0.119 215.959 o
-3 6 -2 0.014 0.069 0.149 141.842 o
-3 6 -1 16.971 16.101 0.556 3.428 o
-3 6 0 13.602 13.084 0.893 2.604 o
-3 6 1 4.956 4.636 0.109 33.605 o
-3 6 2 29.070 30.277 0.536 1.575 o
-3 6 3 82.808 79.196 0.874 0.249 o
-3 6 4 22.542 23.804 0.943 1.603 o
-3 6 5 11.553 11.396 0.218 8.515 o
-3 6 6 13.630 13.947 0.258 6.263 o
-3 6 7 1.367 1.727 0.288 31.927 o
-3 6 8 5.414 4.606 0.377 13.686 o
-3 6 9 0.041 0.199 0.119 211.946 o
-3 6 10 0.390 0.357 0.099 236.821 o
-3 6 11 0.567 0.566 0.099 206.644 o
-3 6 12 0.109 0.179 0.159 120.563 o
-3 7 -2 2.508 2.114 0.139 63.774 o
-3 7 -1 0.031 0.030 0.109 261.305 o
-3 7 0 0.380 0.357 0.109 206.111 o
-3 7 1 19.275 19.178 0.467 3.133 o
-3 7 2 0.598 0.665 0.268 40.857 o
-3 7 3 0.530 0.645 0.119 161.110 o
-3 7 4 1.499 1.598 0.109 108.091 o
-3 7 5 10.807 12.339 1.747 0.945 o
-3 7 6 0.000 0.040 0.159 125.712 o
-3 7 7 0.672 0.705 0.189 75.122 o
-3 7 8 1.739 1.598 0.139 81.353 o
-3 7 9 1.215 1.112 0.119 117.934 o
-3 7 10 0.129 0.248 0.129 175.095 o
-3 7 11 0.001 0.119 0.169 110.476 o
-3 8 -2 1.112 1.102 0.248 43.355 o
-3 8 -1 8.835 8.338 0.308 10.651 o
-3 8 0 2.130 2.035 0.109 83.875 o
-3 8 1 17.071 16.349 0.516 3.554 o
-3 8 2 11.126 10.532 0.208 9.287 o
-3 8 3 6.487 6.631 0.228 17.455 o
-3 8 4 8.888 8.904 0.228 12.013 o
-3 8 5 11.265 11.386 0.715 3.848 o
-3 8 6 0.811 0.844 0.129 127.026 o
-3 8 7 12.519 11.386 0.834 3.025 o
-3 8 8 0.416 0.328 0.149 123.251 o
-3 8 9 1.338 1.211 0.268 36.979 o
-3 8 10 0.493 0.457 0.099 219.637 o
-3 8 11 0.283 0.308 0.099 253.323 o
-3 9 -2 0.108 0.228 0.139 154.224 o
-3 9 -1 1.404 1.469 0.119 105.251 o
-3 9 0 13.380 13.203 0.248 6.625 o
-3 9 1 0.192 0.169 0.139 151.693 o
-3 9 2 12.479 12.885 0.238 7.262 o
-3 9 3 0.000 0.069 0.218 66.519 o
-3 9 4 2.880 3.107 0.139 52.809 o
-3 9 5 0.253 0.139 0.149 131.903 o
-3 9 6 5.710 5.499 0.606 6.770 o
-3 9 7 0.229 0.199 0.119 196.569 o
-3 9 8 0.005 0.069 0.199 80.350 o
-3 9 9 0.116 0.149 0.199 78.543 o
-3 9 10 0.007 0.179 0.119 215.764 o
-3 10 -2 0.968 0.745 0.109 150.360 o
-3 10 -1 0.191 0.387 0.338 27.398 o
-3 10 0 9.958 9.639 0.457 6.917 o
-3 10 1 0.002 0.050 0.179 99.297 o
-3 10 2 0.956 1.032 0.159 89.621 o
-3 10 3 0.313 0.615 0.387 20.712 o
-3 10 4 0.370 0.328 0.109 208.422 o
-3 10 5 0.691 0.586 0.109 172.554 o
-3 10 6 6.663 6.145 0.288 15.036 o
-3 10 7 0.689 0.754 0.129 133.813 o
-3 10 8 3.024 2.849 0.377 17.363 o
-3 10 9 0.106 0.159 0.119 208.123 o
-3 10 10 0.093 0.139 0.129 180.709 o
-3 11 -2 7.389 7.445 0.218 15.428 o
-3 11 -1 1.415 1.449 0.119 105.232 o
-3 11 0 1.566 1.668 0.099 112.286 o
-3 11 1 7.183 7.137 0.218 16.056 o
-3 11 2 0.006 0.069 0.189 88.965 o
-3 11 3 0.059 0.069 0.189 88.185 o
-3 11 4 0.732 0.645 0.109 167.753 o
-3 11 5 3.257 3.415 0.189 38.164 o
-3 11 6 0.392 0.298 0.119 180.988 o
-3 11 7 0.339 0.357 0.228 57.525 o
-3 11 8 0.672 0.675 0.199 69.048 o
-3 11 9 0.010 0.010 0.050 1249.350 o
-3 12 -2 0.406 0.516 0.109 196.984 o
-3 12 -1 2.880 2.641 0.248 31.956 o
-3 12 0 0.092 0.159 0.159 121.344 o
-3 12 1 0.476 0.496 0.119 168.924 o
-3 12 2 0.182 0.208 0.119 199.842 o
-3 12 3 1.029 1.211 0.119 123.213 o
-3 12 4 1.110 0.913 0.119 125.948 o
-3 12 5 0.145 0.328 0.129 171.786 o
-3 12 6 0.310 0.328 0.129 162.381 o
-3 12 7 1.709 1.797 0.119 91.770 o
-3 12 8 0.089 0.040 0.149 139.618 o
-3 13 -2 0.001 0.109 0.179 98.781 o
-3 13 -1 3.759 4.030 0.139 40.544 o
-3 13 0 0.398 0.328 0.119 179.555 o
-3 13 1 0.048 0.139 0.169 109.177 o
-3 13 2 0.071 0.248 0.129 178.668 o
-3 13 3 0.165 0.288 0.199 77.124 o
-3 13 4 0.464 0.268 0.129 155.753 o
-3 13 5 0.775 0.715 0.119 145.850 o
-3 13 6 0.114 0.169 0.129 178.444 o
-3 13 7 0.175 0.298 0.169 104.580 o
-3 14 -2 0.285 0.308 0.169 102.079 o
-3 14 -1 0.647 0.675 0.179 82.823 o
-3 14 0 0.252 0.347 0.129 165.044 o
-3 14 1 0.046 0.705 0.546 10.601 o
-3 14 2 0.717 0.655 0.119 150.421 o
-3 14 3 0.596 0.685 0.139 124.860 o
-3 14 4 0.572 0.725 0.129 139.579 o
-3 14 5 0.132 0.318 0.119 199.506 o
-3 14 6 0.113 0.159 0.179 96.288 o
-3 15 -2 2.016 2.204 0.159 62.498 o
-3 15 -1 0.045 0.208 0.179 97.073 o
-3 15 0 0.205 0.238 0.129 170.849 o
-3 15 1 0.212 0.208 0.139 149.915 o
-3 15 2 0.001 0.109 0.189 88.739 o
-3 15 3 0.196 0.199 0.169 105.205 o
-3 15 4 0.330 0.447 0.169 99.651 o
-2 0 0 67.805 66.281 0.705 0.363 o
-2 0 2 176.206 200.948 1.320 0.052 o
-2 0 4 74.438 78.084 0.943 0.282 o
-2 0 6 190.829 193.016 1.777 0.047 o
-2 0 8 25.718 24.102 0.407 2.174 o
-2 0 10 0.062 0.099 0.159 123.059 o
-2 0 12 0.166 0.189 0.169 105.977 o
-2 1 -1 54.767 53.892 2.789 0.240 o
-2 1 0 99.598 95.188 2.631 0.132 o
-2 1 1 135.834 128.889 5.192 0.055 o
-2 1 2 7.850 8.785 0.159 15.124 o
-2 1 3 8.518 10.155 0.288 10.527 o
-2 1 4 151.011 153.815 2.005 0.071 o
-2 1 5 8.943 10.056 0.189 12.005 o
-2 1 6 2.554 3.008 0.159 51.707 o
-2 1 7 0.496 0.526 0.099 215.659 o
-2 1 8 5.426 5.073 0.139 27.902 o
-2 1 9 0.082 0.218 0.109 243.586 o
-2 1 10 0.012 0.109 0.149 141.183 o
-2 1 11 1.407 1.290 0.089 136.882 o
-2 1 12 0.647 0.655 0.119 154.196 o
-2 1 13 0.236 0.218 0.149 131.138 o
-2 2 -1 9.297 9.857 0.357 8.742 o
-2 2 0 13.973 14.066 0.268 6.024 o
-2 2 1 104.560 101.203 1.271 0.154 o
-2 2 2 96.400 101.501 1.350 0.167 o
-2 2 3 0.654 0.576 0.159 101.286 o
-2 2 4 17.637 23.189 0.407 3.241 o
-2 2 5 131.387 137.972 1.439 0.095 o
-2 2 6 0.280 0.089 0.159 117.049 o
-2 2 7 60.441 58.250 0.774 0.444 o
-2 2 8 1.200 1.300 0.139 97.076 o
-2 2 9 1.682 1.509 0.089 118.651 o
-2 2 10 1.823 1.787 0.079 114.125 o
-2 2 11 0.026 0.099 0.159 124.082 o
-2 2 12 0.002 0.139 0.169 110.244 o
-2 3 -1 3.892 4.259 0.377 15.527 o
-2 3 0 5.579 5.241 0.328 15.431 o
-2 3 1 0.002 0.040 0.109 264.424 o
-2 3 2 2.320 1.688 0.069 102.541 o
-2 3 3 226.819 228.177 6.671 0.024 o
-2 3 4 0.000 0.159 0.119 217.292 o
-2 3 5 77.711 79.851 0.774 0.271 o
-2 3 6 0.106 0.258 0.179 95.514 o
-2 3 7 4.461 4.179 0.169 32.003 o
-2 3 8 1.737 1.717 0.149 74.821 o
-2 3 9 5.219 5.182 0.119 29.958 o
-2 3 10 1.443 1.330 0.089 133.962 o
-2 3 11 0.011 0.069 0.139 162.700 o
-2 3 12 0.208 0.387 0.129 166.443 o
-2 4 -1 110.008 96.945 4.229 0.084 o
-2 4 0 0.627 0.119 0.089 257.063 o
-2 4 1 38.664 39.767 0.943 0.834 o
-2 4 2 6.058 4.814 0.129 26.392 o
-2 4 3 100.880 113.572 2.104 0.132 o
-2 4 4 14.493 15.913 0.536 3.981 o
-2 4 5 0.040 0.060 0.159 124.266 o
-2 4 6 24.585 24.033 0.705 1.848 o
-2 4 7 0.224 0.169 0.129 171.798 o
-2 4 8 2.591 2.492 0.099 73.034 o
-2 4 9 4.396 4.229 0.089 40.628 o
-2 4 10 0.038 0.069 0.139 161.368 o
-2 4 11 0.806 0.983 0.099 169.640 o
-2 4 12 0.197 0.129 0.159 118.795 o
-2 5 -1 12.036 10.959 0.625 4.388 o
-2 5 0 4.970 4.795 0.199 25.719 o
-2 5 1 19.801 20.330 0.427 3.073 o
-2 5 2 78.586 74.848 0.695 0.281 o
-2 5 3 2.728 1.876 0.228 37.968 o
-2 5 4 124.774 122.715 3.445 0.081 o
-2 5 5 3.028 2.700 0.208 38.033 o
-2 5 6 2.530 2.333 0.308 25.120 o
-2 5 7 2.544 2.551 0.189 46.085 o
-2 5 8 8.141 8.716 0.268 12.089 o
-2 5 9 2.276 2.005 0.069 98.637 o
-2 5 10 1.331 1.320 0.099 129.499 o
-2 5 11 0.004 0.079 0.169 110.875 o
-2 5 12 0.061 0.099 0.149 139.547 o
-2 6 -1 0.000 0.079 0.129 188.660 o
-2 6 0 5.737 4.894 0.109 28.755 o
-2 6 1 0.274 0.387 0.089 292.113 o
-2 6 2 56.434 57.903 2.422 0.268 o
-2 6 3 1.503 1.171 0.099 125.034 o
-2 6 4 2.709 3.097 0.208 38.724 o
-2 6 5 0.028 0.129 0.149 140.212 o
-2 6 6 7.556 7.395 0.149 17.296 o
-2 6 7 0.211 0.268 0.109 226.737 o
-2 6 8 0.163 0.189 0.109 236.150 o
-2 6 9 0.006 0.099 0.139 162.203 o
-2 6 10 1.816 1.817 0.149 72.648 o
-2 6 11 0.274 0.258 0.119 190.875 o
-2 6 12 0.031 0.060 0.129 187.285 o
-2 7 -1 25.570 25.333 0.596 1.892 o
-2 7 0 72.128 67.909 0.735 0.330 o
-2 7 1 35.872 35.915 0.973 0.923 o
-2 7 2 11.847 11.763 0.357 6.784 o
-2 7 3 59.208 57.059 2.055 0.302 o
-2 7 4 5.121 4.934 0.129 30.365 o
-2 7 5 12.791 11.535 0.347 6.499 o
-2 7 6 0.069 0.040 0.149 140.368 o
-2 7 7 0.887 1.082 0.129 119.675 o
-2 7 8 3.217 2.899 0.208 36.433 o
-2 7 9 1.451 1.727 0.248 40.178 o
-2 7 10 0.027 0.050 0.159 124.791 o
-2 7 11 0.232 0.258 0.099 263.658 o
-2 8 -1 6.357 6.184 0.129 22.782 o
-2 8 0 0.062 0.030 0.109 257.282 o
-2 8 1 4.887 4.646 0.119 33.185 o
-2 8 2 6.703 6.403 0.129 21.356 o
-2 8 3 3.019 2.819 0.119 57.772 o
-2 8 4 0.066 0.318 0.139 154.081 o
-2 8 5 9.276 9.341 0.228 11.326 o
-2 8 6 6.188 5.916 0.129 23.813 o
-2 8 7 4.194 4.010 0.099 42.220 o
-2 8 8 0.572 0.625 0.089 230.928 o
-2 8 9 0.125 0.189 0.149 135.556 o
-2 8 10 0.530 0.467 0.099 215.239 o
-2 8 11 0.004 0.060 0.159 125.325 o
-2 9 -1 28.034 26.375 0.556 1.736 o
-2 9 0 16.269 16.429 0.417 4.133 o
-2 9 1 42.750 43.469 1.578 0.530 o
-2 9 2 14.092 14.414 0.526 4.277 o
-2 9 3 0.239 0.258 0.119 193.474 o
-2 9 4 2.566 2.323 0.169 52.252 o
-2 9 5 0.548 0.715 0.129 140.849 o
-2 9 6 0.001 0.119 0.159 124.516 o
-2 9 7 1.681 1.767 0.129 86.671 o
-2 9 8 0.003 0.099 0.159 124.749 o
-2 9 9 0.085 0.278 0.199 78.145 o
-2 9 10 0.011 0.089 0.169 110.606 o
-2 10 -1 3.262 3.385 0.129 49.444 o
-2 10 0 0.411 0.566 0.208 66.491 o
-2 10 1 3.185 3.187 0.129 51.304 o
-2 10 2 0.074 0.060 0.199 79.585 o
-2 10 3 3.414 3.464 0.139 45.712 o
-2 10 4 5.170 5.480 0.218 22.496 o
-2 10 5 2.616 2.412 0.199 43.640 o
-2 10 6 7.206 6.830 0.437 9.409 o
-2 10 7 1.862 1.787 0.179 59.080 o
-2 10 8 0.809 0.864 0.089 193.439 o
-2 10 9 0.492 0.377 0.228 56.397 o
-2 10 10 0.066 0.129 0.169 108.880 o
-2 11 -1 2.453 2.382 0.139 62.655 o
-2 11 0 15.016 14.970 1.211 1.608 o
-2 11 1 4.027 4.050 0.347 17.308 o
-2 11 2 3.419 3.564 0.149 43.470 o
-2 11 3 0.064 0.199 0.109 246.824 o
-2 11 4 0.302 0.298 0.149 127.523 o
-2 11 5 0.765 0.814 0.179 79.891 o
-2 11 6 0.147 0.109 0.159 120.486 o
-2 11 7 0.238 0.318 0.119 191.328 o
-2 11 8 0.258 0.179 0.129 169.528 o
-2 11 9 0.468 0.467 0.199 72.528 o
-2 12 -1 1.981 2.234 0.119 80.197 o
-2 12 0 0.177 0.387 0.119 193.311 o
-2 12 1 0.048 0.050 0.159 124.158 o
-2 12 2 4.288 4.288 0.129 37.106 o
-2 12 3 3.211 3.097 0.169 43.241 o
-2 12 4 0.236 0.417 0.179 91.828 o
-2 12 5 3.440 3.395 0.248 28.488 o
-2 12 6 0.626 0.635 0.099 197.925 o
-2 12 7 0.867 0.933 0.119 136.135 o
-2 12 8 0.231 0.278 0.169 103.563 o
-2 12 9 0.293 0.288 0.119 188.388 o
-2 13 -1 0.355 0.268 0.119 184.627 o
-2 13 0 1.283 1.320 0.119 111.748 o
-2 13 1 0.419 0.407 0.109 200.508 o
-2 13 2 0.020 0.030 0.109 262.723 o
-2 13 3 0.081 0.060 0.189 87.933 o
-2 13 4 2.109 2.234 0.129 73.144 o
-2 13 5 0.002 0.099 0.159 124.778 o
-2 13 6 0.003 0.109 0.169 110.555 o
-2 13 7 0.098 0.218 0.119 206.310 o
-2 13 8 0.968 0.983 0.159 89.867 o
-2 14 -1 1.650 1.757 0.129 87.504 o
-2 14 0 0.128 0.189 0.139 154.195 o
-2 14 1 0.399 0.556 0.119 171.936 o
-2 14 2 1.571 1.648 0.109 104.831 o
-2 14 3 1.188 1.251 0.119 116.357 o
-2 14 4 1.209 1.112 0.099 140.789 o
-2 14 5 0.020 0.060 0.159 124.846 o
-2 14 6 0.040 0.139 0.139 159.577 o
-2 15 -1 0.151 0.020 0.079 437.783 o
-2 15 0 0.480 0.447 0.129 150.429 o
-2 15 1 0.210 0.347 0.119 192.307 o
-2 15 2 0.445 0.447 0.129 152.167 o
-2 15 3 0.595 0.606 0.119 158.515 o
-2 15 4 0.020 0.050 0.149 142.011 o
-2 15 5 0.239 0.308 0.109 221.911 o
-2 16 -1 0.316 0.476 0.109 206.537 o
-2 16 0 0.040 0.139 0.169 109.374 o
-2 16 1 0.267 0.298 0.139 145.487 o
-2 16 2 0.180 0.189 0.139 151.795 o
-1 0 1 633.229 666.801 4.457 0.004 o
-1 0 3 6.385 7.157 0.199 18.397 o
-1 0 5 110.269 112.381 0.834 0.141 o
-1 0 7 2.217 2.114 0.149 64.245 o
-1 0 9 2.922 2.899 0.189 42.031 o
-1 0 11 0.006 0.159 0.189 88.308 o
-1 0 13 0.169 0.318 0.169 104.491 o
-1 1 0 794.184 682.476 28.569 0.002 o
-1 1 1 347.362 323.871 6.125 0.013 o
-1 1 2 318.208 312.098 6.591 0.015 o
-1 1 3 14.968 15.863 0.268 5.285 o
-1 1 4 61.273 67.135 0.566 0.415 o
-1 1 5 24.551 23.546 0.298 2.453 o
-1 1 6 61.383 60.246 0.903 0.415 o
-1 1 7 42.409 41.792 3.365 0.216 o
-1 1 8 7.804 7.783 0.149 16.382 o
-1 1 9 0.426 0.576 0.129 149.925 o
-1 1 10 0.701 0.655 0.109 169.518 o
-1 1 11 1.502 1.489 0.119 101.907 o
-1 1 12 0.730 0.725 0.119 147.915 o
-1 1 13 0.061 0.050 0.159 123.804 o
-1 2 0 82.968 78.163 5.628 0.073 o
-1 2 1 2.756 3.256 0.089 65.858 o
-1 2 2 49.761 49.207 1.439 0.477 o
-1 2 3 3.230 2.819 0.199 38.358 o
-1 2 4 77.504 84.834 4.328 0.105 o
-1 2 5 9.697 9.460 0.149 12.047 o
-1 2 6 18.636 18.881 0.427 3.379 o
-1 2 7 4.388 4.090 0.417 13.109 o
-1 2 8 2.608 2.591 0.208 40.842 o
-1 2 9 8.385 8.239 0.615 5.583 o
-1 2 10 1.105 1.132 0.179 72.579 o
-1 2 11 0.669 0.745 0.109 168.683 o
-1 2 12 0.091 0.149 0.169 108.109 o
-1 3 0 333.494 309.765 5.718 0.015 o
-1 3 1 224.812 229.438 4.348 0.030 o
-1 3 2 65.113 73.468 2.303 0.232 o
-1 3 3 174.042 188.222 3.504 0.047 o
-1 3 4 32.240 36.243 0.387 1.349 o
-1 3 5 47.147 49.465 0.814 0.639 o
-1 3 6 30.019 27.209 1.082 1.112 o
-1 3 7 6.341 6.006 0.556 7.408 o
-1 3 8 9.864 8.646 0.367 8.597 o
-1 3 9 0.003 0.189 0.109 254.741 o
-1 3 10 0.406 0.447 0.109 199.897 o
-1 3 11 0.227 0.169 0.139 150.108 o
-1 3 12 0.107 0.199 0.129 177.988 o
-1 4 0 0.641 0.397 0.060 352.639 o
-1 4 1 4.742 4.795 0.089 35.958 o
-1 4 2 40.178 44.670 1.370 0.613 o
-1 4 3 5.729 6.681 0.109 24.976 o
-1 4 4 17.597 14.821 0.338 4.343 o
-1 4 5 5.029 4.963 0.089 33.568 o
-1 4 6 0.200 0.099 0.149 134.478 o
-1 4 7 2.822 2.928 0.486 11.554 o
-1 4 8 19.743 18.980 2.541 0.438 o
-1 4 9 4.430 4.477 0.328 17.676 o
-1 4 10 6.536 6.323 0.179 19.890 o
-1 4 11 0.320 0.258 0.129 163.767 o
-1 4 12 0.004 0.129 0.149 141.110 o
-1 5 0 4.028 2.789 0.119 46.577 o
-1 5 1 0.001 0.089 0.089 385.990 o
-1 5 2 100.090 104.648 3.335 0.108 o
-1 5 3 68.415 72.475 1.449 0.290 o
-1 5 4 51.764 53.456 0.506 0.593 o
-1 5 5 0.159 0.149 0.099 282.571 o
-1 5 6 0.343 0.288 0.089 288.652 o
-1 5 7 12.330 11.843 0.735 3.545 o
-1 5 8 0.410 2.333 1.727 1.064 o
-1 5 9 0.398 0.248 0.139 140.968 o
-1 5 10 0.106 0.099 0.159 121.783 o
-1 5 11 0.037 0.228 0.149 138.062 o
-1 5 12 0.027 0.089 0.179 98.481 o
-1 6 0 46.057 43.132 2.283 0.352 o
-1 6 1 38.170 36.987 1.251 0.737 o
-1 6 2 16.735 14.702 0.387 4.365 o
-1 6 3 0.004 0.953 0.655 7.371 o
-1 6 4 0.235 0.486 0.089 290.279 o
-1 6 5 12.517 11.763 0.228 7.654 o
-1 6 6 9.822 10.244 0.645 4.733 o
-1 6 7 4.103 4.090 0.139 37.864 o
-1 6 8 6.569 6.750 0.218 17.598 o
-1 6 9 9.916 9.996 0.278 9.562 o
-1 6 10 1.486 1.489 0.129 94.878 o
-1 6 11 0.325 0.457 0.129 158.135 o
-1 6 12 0.306 0.318 0.139 143.396 o
-1 7 0 4.532 4.407 0.238 24.364 o
-1 7 1 0.286 0.119 0.119 195.225 o
-1 7 2 8.696 9.004 0.268 11.329 o
-1 7 3 25.333 26.276 0.586 1.888 o
-1 7 4 1.890 1.747 0.099 99.766 o
-1 7 5 0.012 0.119 0.139 161.430 o
-1 7 6 2.941 2.889 0.099 63.391 o
-1 7 7 6.117 6.274 0.258 17.140 o
-1 7 8 1.055 0.953 0.089 169.489 o
-1 7 9 0.000 0.000 0.040 2017.500 o
-1 7 10 0.022 0.069 0.189 88.729 o
-1 7 11 0.903 0.874 0.189 71.059 o
-1 8 0 4.397 3.365 0.338 17.930 o
-1 8 1 62.301 61.556 3.266 0.179 o
-1 8 2 7.435 7.068 0.258 14.339 o
-1 8 3 2.711 2.134 0.089 77.583 o
-1 8 4 5.734 5.490 0.129 26.335 o
-1 8 5 14.039 15.327 0.526 4.190 o
-1 8 6 1.118 0.983 0.099 149.469 o
-1 8 7 8.019 7.892 0.228 13.802 o
-1 8 8 2.419 2.641 0.268 30.500 o
-1 8 9 0.928 1.142 0.218 54.708 o
-1 8 10 0.387 0.476 0.119 175.262 o
-1 8 11 0.446 0.655 0.119 165.874 o
-1 9 0 24.958 24.638 1.102 1.283 o
-1 9 1 0.917 0.913 0.149 100.493 o
-1 9 2 0.170 0.189 0.109 235.392 o
-1 9 3 3.466 3.325 0.099 53.105 o
-1 9 4 0.026 0.169 0.169 109.340 o
-1 9 5 3.287 3.137 0.139 48.437 o
-1 9 6 8.033 7.346 0.298 12.197 o
-1 9 7 0.474 0.467 0.089 254.224 o
-1 9 8 1.427 1.400 0.099 123.372 o
-1 9 9 0.047 0.010 0.079 481.519 o
-1 9 10 0.917 1.003 0.119 132.276 o
-1 9 11 0.128 0.189 0.189 86.300 o
-1 10 0 26.167 26.991 1.697 0.740 o
-1 10 1 3.665 3.484 0.099 49.893 o
-1 10 2 14.426 14.175 0.546 4.114 o
-1 10 3 0.081 0.238 0.149 136.266 o
-1 10 4 3.996 4.636 0.149 35.582 o
-1 10 5 1.852 1.846 0.228 42.864 o
-1 10 6 7.436 7.346 0.397 10.070 o
-1 10 7 0.026 0.199 0.139 158.782 o
-1 10 8 0.167 0.228 0.109 233.486 o
-1 10 9 0.000 0.040 0.119 222.662 o
-1 10 10 0.006 0.179 0.129 184.995 o
-1 11 0 0.241 0.218 0.129 169.375 o
-1 11 1 2.578 2.660 0.109 68.469 o
-1 11 2 12.305 12.716 0.397 6.003 o
-1 11 3 0.017 0.050 0.179 99.030 o
-1 11 4 12.949 12.081 0.745 3.395 o
-1 11 5 2.041 1.886 0.109 87.847 o
-1 11 6 1.023 0.864 0.089 175.337 o
-1 11 7 1.984 2.035 0.099 92.690 o
-1 11 8 0.002 0.020 0.069 650.636 o
-1 11 9 0.132 0.218 0.119 203.482 o
-1 12 0 0.360 0.347 0.089 280.736 o
-1 12 1 7.053 7.127 0.119 19.673 o
-1 12 2 0.040 0.020 0.089 384.944 o
-1 12 3 0.015 0.079 0.189 88.764 o
-1 12 4 0.167 0.079 0.149 136.006 o
-1 12 5 3.005 2.938 0.119 57.182 o
-1 12 6 0.050 0.109 0.169 109.481 o
-1 12 7 0.025 0.099 0.159 124.118 o
-1 12 8 0.183 0.189 0.119 200.605 o
-1 12 9 0.334 0.407 0.099 240.541 o
-1 13 0 0.535 0.427 0.089 248.482 o
-1 13 1 3.564 3.415 0.218 31.925 o
-1 13 2 0.000 0.060 0.129 189.306 o
-1 13 3 14.087 13.798 0.695 3.392 o
-1 13 4 0.062 0.109 0.179 97.663 o
-1 13 5 3.193 2.928 0.129 52.642 o
-1 13 6 0.343 0.407 0.129 158.477 o
-1 13 7 0.011 0.109 0.159 124.395 o
-1 13 8 0.010 0.089 0.149 141.625 o
-1 14 0 0.096 0.199 0.129 178.665 o
-1 14 1 0.704 0.625 0.089 215.770 o
-1 14 2 0.258 0.357 0.099 253.303 o
-1 14 3 0.115 0.318 0.129 173.867 o
-1 14 4 0.322 0.347 0.129 161.184 o
-1 14 5 0.164 0.199 0.159 118.756 o
-1 14 6 0.002 0.149 0.169 110.129 o
-1 14 7 0.001 0.099 0.159 124.810 o
-1 15 0 0.011 0.129 0.159 124.090 o
-1 15 1 0.131 0.109 0.169 107.638 o
-1 15 2 3.841 4.100 0.109 43.703 o
-1 15 3 0.010 0.040 0.159 125.431 o
-1 15 4 2.903 3.008 0.139 53.101 o
-1 15 5 0.001 0.060 0.179 99.234 o
-1 16 0 0.706 0.675 0.099 189.224 o
-1 16 1 0.005 0.069 0.159 125.139 o
-1 16 2 0.625 0.596 0.109 176.866 o
-1 16 3 0.015 0.179 0.129 184.417 o
0 0 2 979.791 930.059 6.026 0.002 o
0 0 4 16.797 16.032 0.447 3.930 o
0 0 6 1.709 1.926 0.139 78.704 o
0 0 8 1.528 1.509 0.159 74.735 o
0 0 10 3.829 3.653 0.169 37.039 o
0 0 12 3.188 3.296 0.189 38.959 o
0 1 1 41.239 47.887 1.509 0.543 o
0 1 2 416.494 421.421 10.542 0.008 o
0 1 3 7.037 5.986 0.298 14.234 o
0 1 4 1.083 1.459 0.069 176.913 o
0 1 5 32.507 31.845 0.467 1.401 o
0 1 6 19.986 19.506 0.308 3.397 o
0 1 7 6.585 6.373 0.387 11.394 o
0 1 8 0.819 0.883 0.119 139.544 o
0 1 9 0.692 0.794 0.268 40.250 o
0 1 10 3.862 3.703 0.119 43.909 o
0 1 11 0.536 0.596 0.218 59.962 o
0 1 12 0.097 0.169 0.169 107.741 o
0 2 0 1.338 2.104 0.060 144.992 o
0 2 1 2013.730 1938.650 88.001 0.000 o
0 2 2 38.456 40.054 1.817 0.512 o
0 2 3 0.006 0.060 0.079 488.832 o
0 2 4 54.916 56.166 1.598 0.386 o
0 2 5 2.968 2.770 0.099 63.910 o
0 2 6 0.098 0.050 0.149 139.080 o
0 2 7 4.127 4.259 0.397 14.214 o
0 2 8 7.232 7.078 0.913 3.234 o
0 2 9 0.142 0.199 0.109 237.919 o
0 2 10 0.950 0.923 0.119 132.590 o
0 2 11 3.270 3.395 0.228 31.836 o
0 2 12 0.005 0.050 0.159 125.428 o
0 3 1 310.563 306.648 5.083 0.017 o
0 3 2 8.203 11.148 0.467 7.204 o
0 3 3 246.527 248.606 12.468 0.012 o
0 3 4 5.128 6.125 0.447 10.672 o
0 3 5 0.017 0.109 0.099 309.962 o
0 3 6 2.369 2.134 0.189 49.191 o
0 3 7 0.481 0.526 0.109 190.387 o
0 3 8 0.090 0.278 0.179 95.625 o
0 3 9 9.472 9.450 0.625 5.081 o
0 3 10 0.025 0.159 0.129 184.382 o
0 3 11 1.302 1.380 0.119 110.052 o
0 3 12 0.088 0.189 0.159 121.030 o
0 4 0 330.164 321.230 1.737 0.017 o
0 4 1 17.264 17.620 0.486 3.526 o
0 4 2 28.080 25.413 1.132 1.147 o
0 4 3 76.876 74.550 3.653 0.134 o
0 4 4 1.215 0.566 0.179 75.036 o
0 4 5 14.520 14.642 0.903 2.441 o
0 4 6 2.273 2.154 0.149 63.181 o
0 4 7 13.224 12.329 1.330 1.470 o
0 4 8 1.095 0.993 0.476 13.368 o
0 4 9 7.062 6.820 0.367 11.399 o
0 4 10 0.284 0.258 0.119 190.106 o
0 4 11 0.063 0.069 0.139 160.131 o
0 4 12 0.269 0.308 0.139 145.168 o
0 5 1 30.564 32.242 0.893 1.172 o
0 5 2 225.425 230.281 4.805 0.028 o
0 5 3 13.840 14.652 0.903 2.491 o
0 5 4 46.692 49.098 1.707 0.445 o
0 5 5 4.385 4.795 0.367 15.196 o
0 5 6 4.166 4.497 0.159 33.835 o
0 5 7 2.466 2.621 0.149 57.687 o
0 5 8 10.260 10.671 1.052 2.304 o
0 5 9 0.058 0.030 0.129 186.445 o
0 5 10 3.962 4.199 0.149 37.176 o
0 5 11 0.023 0.119 0.169 109.990 o
0 5 12 0.004 0.109 0.159 124.600 o
0 6 0 45.199 43.340 0.804 0.721 o
0 6 1 0.034 0.159 0.069 578.469 o
0 6 2 3.193 3.276 0.109 54.871 o
0 6 3 1.149 1.181 0.089 155.146 o
0 6 4 36.676 37.037 1.261 0.756 o
0 6 5 3.880 3.921 0.238 27.235 o
0 6 6 0.843 0.874 0.109 153.822 o
0 6 7 1.304 1.271 0.129 102.957 o
0 6 8 9.414 9.381 0.357 8.822 o
0 6 9 0.137 0.020 0.079 443.226 o
0 6 10 0.297 0.347 0.189 82.721 o
0 6 11 0.071 0.268 0.179 96.052 o
0 6 12 0.097 0.069 0.199 79.251 o
0 7 1 20.386 23.100 0.457 2.730 o
0 7 2 25.948 25.959 0.665 1.755 o
0 7 3 42.000 43.152 1.628 0.524 o
0 7 4 4.592 4.775 0.447 11.481 o
0 7 5 13.255 13.193 0.586 4.205 o
0 7 6 21.796 22.841 1.300 1.171 o
0 7 7 8.542 8.497 0.496 7.154 o
0 7 8 1.214 1.221 0.139 97.738 o
0 7 9 3.951 4.000 0.159 36.578 o
0 7 10 0.306 0.179 0.149 129.405 o
0 7 11 0.098 0.268 0.119 204.272 o
0 8 0 25.100 25.661 0.516 2.021 o
0 8 1 23.752 22.176 0.328 2.592 o
0 8 2 1.109 1.161 0.079 172.797 o
0 8 3 2.056 2.303 0.089 91.862 o
0 8 4 7.594 7.584 0.437 8.953 o
0 8 5 0.791 0.834 0.119 142.107 o
0 8 6 1.631 1.598 0.129 89.858 o
0 8 7 2.711 2.690 0.238 34.214 o
0 8 8 0.000 0.030 0.129 190.318 o
0 8 9 0.217 0.208 0.129 171.067 o
0 8 10 0.229 0.397 0.278 39.868 o
0 8 11 0.374 0.496 0.119 175.491 o
0 9 1 5.559 5.460 0.119 27.709 o
0 9 2 1.184 1.519 0.089 142.829 o
0 9 3 0.019 0.119 0.149 140.719 o
0 9 4 3.859 4.219 0.169 35.162 o
0 9 5 21.631 22.266 1.340 1.138 o
0 9 6 5.246 5.102 0.129 29.341 o
0 9 7 8.037 8.150 0.159 15.357 o
0 9 8 1.920 1.906 0.119 85.230 o
0 9 9 0.027 0.030 0.109 261.732 o
0 9 10 0.044 0.069 0.199 79.883 o
0 10 0 25.850 25.889 0.596 1.853 o
0 10 1 5.964 6.433 0.308 14.992 o
0 10 2 8.459 7.951 0.218 13.396 o
0 10 3 5.436 5.718 0.288 17.336 o
0 10 4 0.374 0.278 0.109 210.278 o
0 10 5 4.936 4.636 0.129 32.115 o
0 10 6 0.315 0.218 0.149 128.429 o
0 10 7 0.096 0.040 0.149 139.339 o
0 10 8 0.005 0.079 0.179 98.975 o
0 10 9 0.045 0.040 0.159 124.398 o
0 10 10 0.582 0.665 0.129 140.470 o
0 11 1 1.384 1.290 0.129 100.378 o
0 11 2 0.845 0.864 0.109 153.964 o
0 11 3 1.240 1.032 0.109 129.393 o
0 11 4 3.833 3.951 0.099 45.767 o
0 11 5 0.769 0.874 0.109 158.207 o
0 11 6 6.313 6.591 0.328 13.631 o
0 11 7 0.847 0.933 0.109 151.830 o
0 11 8 0.139 0.218 0.149 134.539 o
0 11 9 0.012 0.189 0.129 184.275 o
0 12 0 1.146 1.370 0.169 76.189 o
0 12 1 6.290 5.916 0.228 18.601 o
0 12 2 1.298 0.993 0.079 164.804 o
0 12 3 3.709 3.325 0.099 50.293 o
0 12 4 6.112 5.966 0.109 24.879 o
0 12 5 0.819 0.615 0.089 204.277 o
0 12 6 0.050 0.139 0.189 87.799 o
0 12 7 0.090 0.248 0.129 177.494 o
0 12 8 0.602 0.665 0.129 139.561 o
0 13 1 0.100 0.040 0.139 159.063 o
0 13 2 4.096 3.921 0.099 43.466 o
0 13 3 0.023 0.099 0.149 140.952 o
0 13 4 0.358 0.218 0.109 214.631 o
0 13 5 0.618 0.675 0.099 196.881 o
0 13 6 0.363 0.338 0.129 159.232 o
0 13 7 0.017 0.050 0.169 110.919 o
0 13 8 0.007 0.040 0.149 142.685 o
0 14 0 0.226 0.169 0.189 85.012 o
0 14 1 0.515 0.615 0.238 51.287 o
0 14 2 1.138 1.152 0.089 156.810 o
0 14 3 2.874 2.909 0.099 64.292 o
0 14 4 1.602 1.410 0.179 64.278 o
0 14 5 0.488 0.457 0.109 192.591 o
0 14 6 0.013 0.030 0.129 189.467 o
0 14 7 0.349 0.308 0.119 183.645 o
0 15 1 0.831 0.864 0.179 78.496 o
0 15 2 0.000 0.199 0.129 184.739 o
0 15 3 0.941 1.022 0.099 159.121 o
0 15 4 0.037 0.159 0.129 183.632 o
0 15 5 0.071 0.099 0.139 159.024 o
0 16 0 0.547 0.397 0.189 78.882 o
0 16 1 0.108 0.159 0.169 107.612 o
0 16 2 0.755 0.754 0.129 131.084 o
0 16 3 0.415 0.397 0.179 88.923 o
1 0 1 0.013 0.189 0.060 760.361 o
1 0 3 188.784 192.242 1.350 0.049 o
1 0 5 0.442 0.715 0.119 164.290 o
1 0 7 5.298 5.668 0.189 23.863 o
1 0 9 2.161 2.164 0.159 60.903 o
1 0 11 2.904 3.226 0.179 43.051 o
1 1 1 750.902 742.731 28.133 0.002 o
1 1 2 55.929 57.139 3.812 0.156 o
1 1 3 0.001 0.030 0.089 394.583 o
1 1 4 40.050 38.188 0.705 0.914 o
1 1 5 62.215 61.665 0.923 0.401 o
1 1 6 31.359 31.021 0.993 1.091 o
1 1 7 3.951 3.852 0.129 41.151 o
1 1 8 4.373 4.278 0.367 15.514 o
1 1 9 0.026 0.079 0.199 80.048 o
1 1 10 1.238 1.161 0.149 89.978 o
1 1 11 0.443 0.467 0.119 171.965 o
1 1 12 0.435 0.546 0.129 150.198 o
1 2 1 197.274 181.213 6.184 0.031 o
1 2 2 235.398 232.842 8.338 0.019 o
1 2 3 221.544 234.024 10.066 0.017 o
1 2 4 49.907 50.954 1.658 0.426 o
1 2 5 10.463 12.409 0.208 9.062 o
1 2 6 2.499 2.849 0.338 21.427 o
1 2 7 1.230 1.092 0.139 99.013 o
1 2 8 0.011 0.010 0.089 394.528 o
1 2 9 0.131 0.069 0.189 87.121 o
1 2 10 2.812 2.700 0.129 58.668 o
1 2 11 0.003 0.258 0.208 72.010 o
1 2 12 0.460 0.427 0.119 172.129 o
1 3 1 2.795 2.859 0.139 55.195 o
1 3 2 143.373 138.985 0.794 0.088 o
1 3 3 5.577 5.926 0.149 24.957 o
1 3 4 27.932 27.388 0.953 1.294 o
1 3 5 10.286 9.272 0.347 8.454 o
1 3 6 7.160 6.691 0.576 6.682 o
1 3 7 10.095 9.788 0.675 4.464 o
1 3 8 2.824 2.948 0.476 11.962 o
1 3 9 4.125 4.149 0.288 21.457 o
1 3 10 0.307 0.347 0.169 101.186 o
1 3 11 0.634 0.754 0.119 152.188 o
1 3 12 0.362 0.447 0.119 177.954 o
1 4 1 53.321 53.634 1.122 0.484 o
1 4 2 289.382 281.235 3.335 0.021 o
1 4 3 107.974 109.562 2.700 0.113 o
1 4 4 99.626 102.325 2.601 0.128 o
1 4 5 8.196 8.547 0.615 5.592 o
1 4 6 0.372 0.129 0.159 114.001 o
1 4 7 0.181 0.040 0.119 206.826 o
1 4 8 1.818 1.827 0.228 43.121 o
1 4 9 0.671 0.645 0.109 171.924 o
1 4 10 0.004 0.099 0.179 98.805 o
1 4 11 0.159 0.407 0.268 43.015 o
1 4 12 0.047 0.119 0.169 109.437 o
1 5 1 112.719 110.902 1.360 0.132 o
1 5 2 17.557 17.670 0.655 2.868 o
1 5 3 1.275 1.062 0.089 150.910 o
1 5 4 2.292 2.690 0.129 66.220 o
1 5 5 5.023 5.162 0.338 15.737 o
1 5 6 0.001 0.099 0.149 141.787 o
1 5 7 2.447 2.641 0.447 13.704 o
1 5 8 3.464 3.474 0.119 48.778 o
1 5 9 2.892 3.107 0.099 62.448 o
1 5 10 0.973 1.092 0.119 127.932 o
1 5 11 0.010 0.079 0.189 88.840 o
1 6 1 34.010 36.580 1.767 0.580 o
1 6 2 54.617 52.562 2.104 0.324 o
1 6 3 125.131 122.387 4.407 0.068 o
1 6 4 25.067 24.162 1.995 0.608 o
1 6 5 5.260 4.854 0.288 18.431 o
1 6 6 7.193 7.405 0.576 6.564 o
1 6 7 2.923 3.137 0.328 21.376 o
1 6 8 0.963 0.953 0.109 144.905 o
1 6 9 0.011 0.218 0.129 183.375 o
1 6 10 0.037 0.268 0.169 107.970 o
1 6 11 0.071 0.020 0.089 376.331 o
1 7 1 45.253 43.033 2.303 0.352 o
1 7 2 6.565 5.887 0.437 10.110 o
1 7 3 0.449 0.387 0.099 228.225 o
1 7 4 0.045 0.208 0.109 248.486 o
1 7 5 14.888 14.979 0.427 4.602 o
1 7 6 0.522 0.556 0.149 116.369 o
1 7 7 0.198 0.248 0.149 131.931 o
1 7 8 1.718 1.568 0.119 94.566 o
1 7 9 0.620 0.675 0.159 100.912 o
1 7 10 0.046 0.089 0.228 60.493 o
1 7 11 0.010 0.099 0.169 110.507 o
1 8 1 40.798 40.293 2.134 0.413 o
1 8 2 17.811 19.546 1.598 0.968 o
1 8 3 11.339 10.582 0.794 3.398 o
1 8 4 7.464 7.157 0.357 11.182 o
1 8 5 10.867 10.622 0.506 5.799 o
1 8 6 1.067 1.191 0.129 111.580 o
1 8 7 4.969 4.755 0.328 16.644 o
1 8 8 0.178 0.179 0.129 174.232 o
1 8 9 0.000 0.030 0.109 265.251 o
1 8 10 0.318 0.387 0.119 183.004 o
1 9 1 0.279 0.149 0.159 116.257 o
1 9 2 7.343 6.830 0.437 9.326 o
1 9 3 0.185 0.069 0.199 78.194 o
1 9 4 11.709 12.170 0.427 6.054 o
1 9 5 0.314 0.149 0.169 103.173 o
1 9 6 6.851 6.730 0.139 20.112 o
1 9 7 0.043 0.109 0.159 123.454 o
1 9 8 0.002 0.099 0.169 110.700 o
1 9 9 0.126 0.139 0.169 107.432 o
1 9 10 0.002 0.010 0.050 1272.470 o
1 10 1 0.736 0.715 0.109 165.258 o
1 10 2 1.386 1.429 0.189 62.100 o
1 10 3 0.028 0.208 0.139 158.439 o
1 10 4 0.789 0.824 0.129 128.313 o
1 10 5 0.424 0.437 0.109 198.806 o
1 10 6 4.783 4.775 0.199 26.426 o
1 10 7 0.122 0.347 0.228 59.068 o
1 10 8 0.643 0.695 0.189 75.571 o
1 10 9 0.256 0.258 0.119 192.253 o
1 11 1 7.738 7.753 0.526 7.125 o
1 11 2 0.201 0.447 0.129 165.139 o
1 11 3 0.475 0.576 0.099 215.309 o
1 11 4 0.197 0.179 0.119 199.889 o
1 11 5 5.128 5.410 0.139 28.476 o
1 11 6 0.008 0.169 0.129 185.179 o
1 11 7 0.405 0.367 0.119 177.719 o
1 11 8 1.063 1.221 0.149 93.261 o
1 11 9 0.000 0.099 0.169 110.735 o
1 12 1 0.308 0.377 0.109 211.780 o
1 12 2 1.442 1.519 0.109 111.491 o
1 12 3 1.349 1.300 0.149 86.124 o
1 12 4 0.938 1.032 0.099 158.981 o
1 12 5 0.268 0.298 0.199 75.851 o
1 12 6 0.006 0.079 0.169 110.840 o
1 12 7 1.024 1.241 0.119 122.837 o
1 12 8 0.239 0.149 0.179 94.114 o
1 13 1 0.352 0.427 0.109 205.486 o
1 13 2 0.089 0.139 0.169 108.264 o
1 13 3 0.014 0.050 0.169 110.998 o
1 13 4 0.429 0.516 0.119 171.283 o
1 13 5 0.039 0.079 0.218 66.156 o
1 13 6 0.085 0.199 0.159 120.978 o
1 13 7 0.743 0.814 0.149 106.349 o
1 14 1 0.070 0.089 0.179 97.690 o
1 14 2 1.440 1.439 0.109 113.000 o
1 14 3 0.888 0.953 0.119 134.712 o
1 14 4 0.534 0.596 0.169 93.955 o
1 14 5 0.003 0.109 0.179 98.731 o
1 14 6 0.152 0.357 0.248 50.080 o
1 15 1 0.111 0.218 0.109 240.328 o
1 15 2 0.186 0.228 0.129 172.294 o
1 15 3 0.000 0.060 0.179 99.244 o
1 15 4 0.051 0.119 0.169 109.340 o
1 15 5 0.115 0.089 0.179 96.883 o
1 16 1 0.270 0.139 0.189 84.593 o
1 16 2 0.030 0.079 0.208 72.628 o
1 16 3 0.389 0.496 0.208 67.040 o
2 0 2 8.943 12.041 0.278 9.522 o
2 0 4 90.291 93.471 1.132 0.196 o
2 0 6 87.419 91.833 1.360 0.198 o
2 0 8 4.345 4.775 0.218 26.188 o
2 0 10 0.209 0.000 0.109 241.518 o
2 0 12 0.005 0.179 0.179 98.065 o
2 1 2 30.628 32.044 2.541 0.380 o
2 1 3 13.159 12.349 0.536 4.661 o
2 1 4 69.477 70.470 2.690 0.198 o
2 1 5 9.361 8.716 0.139 13.145 o
2 1 6 0.666 0.675 0.099 192.623 o
2 1 7 0.387 0.367 0.119 178.918 o
2 1 8 1.344 1.509 0.129 98.438 o
2 1 9 0.502 0.754 0.228 55.028 o
2 1 10 0.073 0.149 0.139 157.752 o
2 1 11 0.561 0.486 0.129 145.575 o
2 1 12 0.149 0.238 0.189 85.632 o
2 2 2 97.507 95.257 4.288 0.091 o
2 2 3 2.494 2.144 0.079 86.205 o
2 2 4 8.074 7.783 0.506 7.324 o
2 2 5 79.704 83.147 4.477 0.100 o
2 2 6 0.000 0.159 0.159 123.979 o
2 2 7 18.651 19.734 1.638 0.920 o
2 2 8 0.441 0.536 0.139 133.408 o
2 2 9 0.011 1.539 1.022 3.033 o
2 2 10 0.184 0.268 0.169 104.702 o
2 2 11 0.039 0.139 0.199 79.525 o
2 3 2 1.362 1.628 0.079 140.164 o
2 3 3 120.268 125.792 7.088 0.042 o
2 3 4 0.084 0.109 0.149 138.502 o
2 3 5 14.769 15.148 0.874 2.505 o
2 3 6 2.216 1.995 0.109 82.331 o
2 3 7 5.869 6.601 0.228 18.770 o
2 3 8 2.063 1.926 0.109 86.815 o
2 3 9 2.258 2.104 0.566 9.156 o
2 3 10 0.641 0.596 0.119 156.194 o
2 3 11 0.001 0.099 0.189 88.823 o
2 4 2 4.306 4.685 0.169 31.511 o
2 4 3 52.933 47.976 0.615 0.601 o
2 4 4 9.056 8.815 0.328 9.845 o
2 4 5 0.033 0.129 0.149 140.046 o
2 4 6 10.931 11.058 0.854 3.092 o
2 4 7 0.008 0.139 0.169 110.105 o
2 4 8 0.559 0.596 0.109 181.673 o
2 4 9 0.889 0.854 0.139 112.224 o
2 4 10 0.001 0.020 0.109 265.844 o
2 4 11 0.003 0.119 0.179 98.657 o
2 5 2 52.452 52.860 2.502 0.279 o
2 5 3 5.107 5.400 0.109 30.626 o
2 5 4 34.825 36.084 1.906 0.526 o
2 5 5 0.576 4.725 3.425 0.271 o
2 5 6 1.114 1.191 0.119 120.262 o
2 5 7 2.047 2.243 0.447 14.109 o
2 5 8 6.823 6.969 0.248 15.723 o
2 5 9 0.581 0.556 0.089 234.074 o
2 5 10 0.725 0.695 0.099 186.802 o
2 5 11 0.015 0.109 0.159 124.263 o
2 6 2 59.496 53.059 0.655 0.488 o
2 6 3 0.015 0.089 0.149 141.427 o
2 6 4 0.858 0.625 0.099 178.976 o
2 6 5 0.038 0.030 0.129 187.782 o
2 6 6 2.703 3.187 0.268 28.669 o
2 6 7 0.017 0.179 0.149 139.711 o
2 6 8 0.090 0.179 0.149 137.025 o
2 6 9 0.083 0.199 0.139 156.093 o
2 6 10 0.240 0.318 0.129 166.585 o
2 6 11 0.157 0.189 0.169 106.169 o
2 7 2 2.291 1.936 0.189 50.705 o
2 7 3 21.993 22.107 0.774 1.968 o
2 7 4 6.790 7.117 0.149 19.413 o
2 7 5 0.723 0.784 0.199 67.874 o
2 7 6 0.001 0.129 0.189 88.594 o
2 7 7 2.676 2.819 0.199 41.847 o
2 7 8 0.428 0.457 0.109 197.583 o
2 7 9 1.220 1.539 0.159 79.739 o
2 7 10 0.175 0.218 0.139 151.347 o
2 8 2 1.153 1.171 0.228 49.265 o
2 8 3 0.642 0.556 0.109 177.084 o
2 8 4 1.559 1.290 0.119 103.205 o
2 8 5 5.626 6.145 0.308 15.682 o
2 8 6 2.977 2.809 0.119 58.403 o
2 8 7 1.384 1.519 0.109 113.581 o
2 8 8 0.005 0.129 0.189 88.546 o
2 8 9 0.062 0.189 0.179 96.932 o
2 8 10 0.386 0.407 0.129 156.199 o
2 9 2 6.137 5.926 0.139 23.502 o
2 9 3 0.957 1.181 0.119 126.748 o
2 9 4 0.384 0.516 0.119 174.193 o
2 9 5 1.880 2.015 0.109 90.343 o
2 9 6 0.069 0.109 0.159 122.694 o
2 9 7 0.045 0.129 0.179 97.797 o
2 9 8 0.053 0.238 0.159 121.324 o
2 9 9 0.099 0.089 0.189 87.445 o
2 10 2 0.773 0.854 0.119 142.479 o
2 10 3 0.928 1.003 0.129 119.639 o
2 10 4 5.058 4.894 0.129 30.788 o
2 10 5 2.009 1.886 0.119 83.410 o
2 10 6 3.407 3.554 0.129 47.168 o
2 10 7 0.371 0.298 0.129 159.912 o
2 10 8 0.190 0.288 0.139 149.110 o
2 10 9 0.374 0.437 0.129 156.062 o
2 11 2 0.919 0.745 0.099 170.021 o
2 11 3 0.127 0.169 0.129 177.624 o
2 11 4 1.289 1.449 0.159 79.296 o
2 11 5 0.073 0.099 0.169 109.072 o
2 11 6 0.070 0.179 0.179 96.880 o
2 11 7 0.355 0.377 0.129 158.647 o
2 11 8 0.005 0.020 0.109 265.211 o
2 12 2 4.886 5.102 0.129 31.136 o
2 12 3 3.849 3.971 0.129 41.482 o
2 12 4 0.155 0.238 0.119 200.795 o
2 12 5 1.893 2.045 0.199 50.536 o
2 12 6 0.174 0.208 0.179 94.751 o
2 12 7 0.323 0.357 0.129 160.889 o
2 12 8 0.157 0.278 0.169 105.189 o
2 13 2 0.049 0.099 0.159 123.426 o
2 13 3 0.115 0.149 0.159 120.807 o
2 13 4 0.606 0.745 0.119 154.002 o
2 13 5 0.055 0.040 0.159 124.114 o
2 13 6 0.181 0.258 0.129 171.722 o
2 13 7 0.001 0.040 0.139 163.904 o
2 14 2 2.052 2.184 0.129 74.645 o
2 14 3 1.646 1.817 0.129 86.904 o
2 14 4 0.604 0.705 0.129 138.561 o
2 14 5 0.074 0.040 0.149 140.148 o
2 15 2 0.117 0.159 0.149 136.392 o
2 15 3 0.294 0.447 0.109 209.858 o
2 15 4 0.000 0.050 0.169 111.300 o
3 0 3 12.655 13.074 0.367 6.055 o
3 0 5 31.193 32.550 0.864 1.168 o
3 0 7 0.386 0.288 0.199 74.520 o
3 0 9 0.540 0.417 0.179 86.655 o
3 0 11 0.000 0.050 0.199 80.536 o
3 1 3 0.347 0.437 0.089 275.548 o
3 1 4 13.085 13.669 0.645 3.823 o
3 1 5 8.346 9.649 0.288 10.927 o
3 1 6 6.720 7.475 0.149 19.140 o
3 1 7 5.203 5.896 0.159 25.796 o
3 1 8 0.036 0.099 0.189 88.298 o
3 1 9 0.058 0.089 0.159 123.307 o
3 1 10 0.712 0.685 0.119 149.883 o
3 1 11 0.368 0.437 0.228 57.050 o
3 2 3 1.067 1.290 0.258 40.364 o
3 2 4 20.367 20.687 0.556 2.650 o
3 2 5 0.045 0.050 0.169 110.277 o
3 2 6 3.478 3.574 0.189 36.375 o
3 2 7 2.472 2.879 0.139 59.054 o
3 2 8 0.729 0.834 0.109 161.912 o
3 2 9 1.412 1.598 0.139 88.349 o
3 2 10 0.177 0.298 0.228 58.859 o
3 2 11 0.020 0.010 0.050 1221.140 o
3 3 3 27.347 28.222 1.499 0.841 o
3 3 4 0.981 0.804 0.169 83.657 o
3 3 5 5.696 6.294 0.258 17.915 o
3 3 6 8.619 9.937 0.635 5.113 o
3 3 7 0.022 0.079 0.139 161.906 o
3 3 8 1.712 1.747 0.208 49.967 o
3 3 9 0.305 0.308 0.119 186.749 o
3 3 10 0.058 0.040 0.159 124.034 o
3 3 11 0.192 0.189 0.149 133.199 o
3 4 3 0.075 0.159 0.139 157.374 o
3 4 4 0.182 0.169 0.119 201.435 o
3 4 5 0.226 0.258 0.109 225.688 o
3 4 6 1.185 1.489 0.179 69.074 o
3 4 7 1.252 1.420 0.119 111.086 o
3 4 8 4.901 5.241 0.169 27.562 o
3 4 9 0.875 0.923 0.119 136.002 o
3 4 10 0.649 0.655 0.129 137.689 o
3 4 11 0.032 0.020 0.089 387.038 o
3 5 3 12.493 11.783 0.308 6.951 o
3 5 4 8.681 8.160 0.725 4.405 o
3 5 5 0.963 1.191 0.119 126.288 o
3 5 6 0.110 0.149 0.179 96.438 o
3 5 7 4.170 4.298 0.199 29.814 o
3 5 8 0.247 0.199 0.169 104.090 o
3 5 9 0.273 0.328 0.129 164.442 o
3 5 10 0.001 0.050 0.169 111.280 o
3 6 3 0.114 0.179 0.119 206.588 o
3 6 4 3.759 4.189 0.298 21.367 o
3 6 5 0.533 0.715 0.129 141.537 o
3 6 6 4.668 4.914 0.258 21.675 o
3 6 7 2.056 2.104 0.139 70.867 o
3 6 8 1.630 1.727 0.238 41.827 o
3 6 9 1.588 1.807 0.129 88.373 o
3 6 10 0.201 0.208 0.149 132.507 o
3 7 3 6.816 6.373 0.298 14.271 o
3 7 4 0.121 0.139 0.189 86.756 o
3 7 5 0.078 0.387 0.119 201.005 o
3 7 6 1.526 1.688 0.109 105.664 o
3 7 7 0.949 0.953 0.149 99.187 o
3 7 8 0.621 0.705 0.208 63.826 o
3 7 9 0.066 0.129 0.199 79.258 o
3 7 10 0.067 0.208 0.169 107.960 o
3 8 3 2.215 2.511 0.129 68.897 o
3 8 4 2.045 2.095 0.129 75.617 o
3 8 5 9.202 9.550 0.228 11.294 o
3 8 6 0.160 0.218 0.109 234.867 o
3 8 7 2.365 2.621 0.228 37.921 o
3 8 8 0.456 0.536 0.179 87.052 o
3 8 9 0.165 0.467 0.159 115.041 o
3 9 3 1.541 1.727 0.139 84.120 o
3 9 4 0.013 0.189 0.159 123.168 o
3 9 5 0.716 0.794 0.109 163.997 o
3 9 6 1.288 1.469 0.119 109.038 o
3 9 7 0.131 0.159 0.149 135.897 o
3 9 8 0.010 0.050 0.159 125.270 o
3 9 9 0.032 0.228 0.129 181.762 o
3 10 3 0.800 0.764 0.109 159.657 o
3 10 4 4.403 4.944 0.129 34.286 o
3 10 5 1.261 1.271 0.119 113.367 o
3 10 6 2.366 2.710 0.228 37.683 o
3 10 7 0.079 0.199 0.149 137.048 o
3 10 8 0.023 0.079 0.218 66.292 o
3 11 3 0.018 0.040 0.129 188.781 o
3 11 4 3.027 3.087 0.248 30.533 o
3 11 5 0.340 0.347 0.119 182.869 o
3 11 6 0.027 0.119 0.199 79.794 o
3 11 7 0.150 0.189 0.139 153.169 o
3 12 3 0.059 0.208 0.129 180.638 o
3 12 4 0.353 0.318 0.119 183.016 o
3 12 5 0.911 1.032 0.119 131.887 o
3 12 6 0.165 0.228 0.159 118.300 o
3 12 7 0.000 0.020 0.079 500.384 o
3 13 3 5.060 5.231 0.149 28.456 o
3 13 4 0.004 0.050 0.169 111.216 o
3 13 5 0.322 0.208 0.149 128.334 o
3 13 6 0.042 0.119 0.179 97.944 o
3 14 3 0.053 0.069 0.208 72.452 o
3 14 4 0.024 0.149 0.139 160.083 o
3 15 3 0.003 0.060 0.189 89.082 o
4 0 4 4.527 4.298 0.179 30.345 o
4 0 6 0.405 0.635 0.189 79.193 o
4 0 8 0.079 0.159 0.189 87.228 o
4 0 10 0.683 0.804 0.179 81.240 o
4 1 4 0.007 0.050 0.169 111.147 o
4 1 5 3.017 3.107 0.308 23.180 o
4 1 6 0.925 0.993 0.129 119.901 o
4 1 7 0.125 0.139 0.179 96.256 o
4 1 8 0.343 0.467 0.109 204.567 o
4 1 9 0.320 0.427 0.119 181.488 o
4 1 10 0.406 0.546 0.129 151.671 o
4 2 4 0.958 0.943 0.109 145.432 o
4 2 5 1.283 1.459 0.119 109.371 o
4 2 6 1.195 1.181 0.238 45.706 o
4 2 7 0.002 0.119 0.179 98.663 o
4 2 8 1.409 1.519 0.119 104.302 o
4 2 9 0.198 0.268 0.139 149.207 o
4 2 10 0.101 0.437 0.318 30.975 o
4 3 4 1.465 1.558 0.308 28.513 o
4 3 5 0.046 0.040 0.169 110.373 o
4 3 6 0.094 0.069 0.189 87.661 o
4 3 7 0.164 0.159 0.159 119.310 o
4 3 8 0.025 0.109 0.179 98.334 o
4 3 9 0.727 0.933 0.119 142.814 o
4 3 10 0.063 0.060 0.199 79.719 o
4 4 4 0.041 0.119 0.189 88.085 o
4 4 5 0.017 0.109 0.169 110.243 o
4 4 6 0.106 0.218 0.149 135.716 o
4 4 7 3.728 3.941 0.129 42.589 o
4 4 8 0.048 0.030 0.109 259.082 o
4 4 9 0.894 0.864 0.119 136.456 o
4 4 10 0.041 0.079 0.228 60.564 o
4 5 4 7.459 8.884 0.745 4.356 o
4 5 5 0.766 1.221 0.367 22.056 o
4 5 6 0.579 0.675 0.119 157.440 o
4 5 7 0.278 0.417 0.109 212.803 o
4 5 8 0.700 0.705 0.119 150.032 o
4 5 9 0.004 0.109 0.189 88.698 o
4 6 4 1.834 1.836 0.129 82.497 o
4 6 5 0.893 0.715 0.129 126.361 o
4 6 6 1.088 1.261 0.109 131.142 o
4 6 7 0.301 0.318 0.119 186.682 o
4 6 8 1.377 1.777 0.129 93.977 o
4 6 9 0.049 0.119 0.199 79.530 o
4 7 4 2.137 2.234 0.109 81.425 o
4 7 5 2.310 2.462 0.228 38.622 o
4 7 6 2.721 2.988 0.338 20.932 o
4 7 7 0.665 0.735 0.119 151.087 o
4 7 8 0.016 0.079 0.228 60.740 o
4 7 9 0.138 0.109 0.218 65.217 o
4 8 4 2.588 2.591 0.119 65.692 o
4 8 5 0.063 0.129 0.139 158.707 o
4 8 6 0.461 0.357 0.129 153.618 o
4 8 7 0.297 0.377 0.129 161.743 o
4 8 8 0.032 0.030 0.129 188.188 o
4 9 4 1.321 1.539 0.179 66.976 o
4 9 5 3.978 4.368 0.139 37.770 o
4 9 6 0.662 0.794 0.189 74.668 o
4 9 7 0.562 0.675 0.129 141.155 o
4 9 8 0.096 0.099 0.208 71.874 o
4 10 4 0.041 0.079 0.208 72.516 o
4 10 5 0.773 0.774 0.248 45.876 o
4 10 6 0.022 0.069 0.208 72.761 o
4 10 7 0.010 0.050 0.179 99.163 o
4 11 4 1.110 1.191 0.149 92.525 o
4 11 5 0.220 0.377 0.248 49.685 o
4 11 6 0.731 1.032 0.248 45.436 o
4 12 4 0.752 0.774 0.119 145.531 o
4 12 5 0.003 0.129 0.179 98.557 o
4 13 4 0.024 0.109 0.199 79.886 o
5 0 5 0.133 0.189 0.169 106.718 o
5 0 7 0.002 0.109 0.218 66.336 o
5 0 9 0.394 0.397 0.189 80.995 o
5 1 5 4.698 3.703 0.208 27.826 o
5 1 6 2.965 2.631 0.238 33.236 o
5 1 7 0.211 0.208 0.129 171.396 o
5 1 8 0.242 0.347 0.129 165.598 o
5 1 9 0.002 0.109 0.179 98.749 o
5 2 5 0.026 0.089 0.208 72.614 o
5 2 6 0.005 0.169 0.159 123.677 o
5 2 7 0.334 0.248 0.129 163.245 o
5 2 8 0.070 0.119 0.199 79.268 o
5 2 9 0.050 0.218 0.159 121.680 o
5 3 5 2.253 2.243 0.189 49.708 o
5 3 6 0.182 0.278 0.139 149.685 o
5 3 7 0.912 0.963 0.169 83.464 o
5 3 8 0.185 0.199 0.149 133.257 o
5 3 9 0.159 0.318 0.139 149.801 o
5 4 5 0.459 0.556 0.109 190.945 o
5 4 6 0.479 0.437 0.119 170.607 o
5 4 7 0.000 0.199 0.139 160.039 o
5 4 8 0.314 0.179 0.199 76.005 o
5 4 9 0.017 0.079 0.218 66.338 o
5 5 5 0.024 0.050 0.149 141.869 o
5 5 6 0.081 0.069 0.199 79.436 o
5 5 7 0.266 0.387 0.129 163.174 o
5 5 8 0.248 0.357 0.129 165.023 o
5 6 5 0.011 0.149 0.149 140.494 o
5 6 6 0.153 0.288 0.129 172.485 o
5 6 7 0.422 0.467 0.169 97.527 o
5 6 8 0.004 0.179 0.199 79.710 o
5 7 5 1.098 0.903 0.189 68.472 o
5 7 6 0.099 0.069 0.199 79.227 o
5 7 7 0.000 0.089 0.189 88.903 o
5 7 8 0.075 0.278 0.139 154.605 o
5 8 5 0.471 0.556 0.119 167.353 o
5 8 6 0.089 0.189 0.189 86.867 o
5 8 7 0.050 0.159 0.199 79.272 o
5 9 5 0.018 0.040 0.149 142.262 o
5 9 6 0.540 0.665 0.129 142.387 o
5 9 7 0.001 0.060 0.149 142.529 o
5 10 5 0.001 0.169 0.199 79.806 o
5 10 6 0.220 0.377 0.159 114.760 o
5 11 5 0.583 0.685 0.159 101.670 o
6 0 6 2.321 2.273 0.179 51.916 o
6 0 8 0.008 0.050 0.208 72.994 o
6 1 6 0.005 0.218 0.129 183.771 o
6 1 7 0.066 0.169 0.149 138.062 o
6 1 8 0.035 0.050 0.169 110.500 o
6 2 6 0.013 0.010 0.050 1238.870 o
6 2 7 0.351 0.486 0.129 155.947 o
6 2 8 0.000 0.218 0.149 139.586 o
6 3 6 0.280 0.407 0.129 161.880 o
6 3 7 0.426 0.357 0.129 155.416 o
6 4 6 0.398 0.506 0.129 153.068 o
6 4 7 0.018 0.040 0.129 188.808 o
6 5 6 0.371 0.278 0.139 141.458 o
6 5 7 0.098 0.089 0.238 55.302 o
6 6 6 0.169 0.169 0.199 77.794 o
6 6 7 0.010 0.258 0.169 108.685 o
6 7 6 0.007 0.030 0.129 189.872 o
6 8 6 0.047 0.169 0.169 108.871 o
;
_iucr_refine_instructions_details
;
TITL EPOXIDE OLEX2: imported from CIF
CELL 0.71068 4.633 8.4 6.577 90 100.37 90
ZERR 4 0.005 0.001 0.003 0 0.06 0
LATT 1
SYMM 0.5-X,0.5+Y,0.5-Z
SFAC C H O
UNIT 8 16 4

L.S. 10
PLAN  10
CONF
ACTA
MORE -1
BOND $H
WGHT 0.041212 0.008859
FVAR 1.003681
REM <olex2.extras>
REM <HklSrc "%.\\olex2socket.hkl">
REM </olex2.extras>

O1    3     0.11695  0.83089  0.12414  11.00000  0.03468  0.02661  0.03017 =
 -0.00491  0.01047  0.00253
C2    1     0.14821  0.93865  0.29604  11.00000  0.03379  0.02523  0.02727 =
 -0.00242  0.00579  0.00077
H2a   2     0.26473  0.89536  0.42521  11.00000  0.04365  0.04365  0.04365 =
 -0.00000  0.00786 -0.00000
H2b   2     0.16874  1.05192  0.26424  11.00000  0.04048  0.04048  0.04048 =
 -0.00000  0.00729 -0.00000
C3    1    -0.13423  0.86480  0.21838  11.00000  0.03165  0.03405  0.03453 =
 0.00005  0.01249 -0.00306
H3a   2    -0.28978  0.92249  0.13167  11.00000  0.05271  0.05271  0.05271 =
 -0.00000  0.00949 -0.00000
H3b   2    -0.19416  0.77694  0.29313  11.00000  0.05182  0.05182  0.05182 =
 -0.00000  0.00933 -0.00000
HKLF 4

END
Q1 1 -0.3 1 -0.041667 11 0.05 0.2

  REM The information below was added by Olex2.
  REM
  REM R1 = 0.0352 for 1306 Fo > 4sig(Fo) and 0.0652 for all 2081 data
  REM 64 parameters refined using 0 restraints
  REM Highest difference peak 0.1951, deepest hole -0.2971
  REM Mean Shift 1.0135, Max Shift 5.5826.

  REM +++ Tabular Listing of Refinement Information +++
  REM R1_all = 0.0652
  REM R1_gt = 0.0352
  REM wR_ref = 0.0977
  REM GOOF = 0.9063
  REM Shift_max = 5.5826
  REM Shift_mean = 1.0135
  REM Reflections_all = 2081
  REM Reflections_gt = 1306
  REM Parameters = 64
  REM Hole = -0.2971
  REM Peak = 0.1951
  REM Flack = n/a


;
_olex2_submission_special_instructions  'No special instructions were received'
