data_epoxide
_audit_creation_date               2023-10-31
_audit_creation_method
;
Olex2 1.5-dev
(compiled 2023.10.17 svn.r61beb6c5 for OlexSys, GUI svn.r6849)
;
_audit_contact_author_address      ?
_audit_contact_author_email        ?
_audit_contact_author_name         ''
_audit_contact_author_phone        ?
_publ_contact_author_id_orcid      ?
_publ_section_references
;
Bourhis, L.J., Dolomanov, O.V., Gildea, R.J., Howard, J.A.K., Puschmann, H.
 (2015). Acta Cryst. A71, 59-75.

Dolomanov, O.V., Bourhis, L.J., Gildea, R.J, Howard, J.A.K. & Puschmann, H.
 (2009), J. Appl. Cryst. 42, 339-341.

Kleemiss, F., Dolomanov, O.V., Bodensteiner, M., Peyerimhoff, N., Midgley, L.,
Bourhis, L.J., Genoni, A., Malaspina, L.A., Jayatilaka, D., Spencer, J.L.,
White, F., Grundkoetter-Stock, B., Steinhauer, S., Lentz, D., Puschmann, H.,
Grabowsky, S. (2021), Chem. Sci., 12, 1675-1692.
;
_chemical_formula_moiety           'C2 H4 O'
_chemical_formula_sum              'C2 H4 O'
_chemical_formula_weight           44.053
loop_
  _atom_type_symbol
  _atom_type_scat_dispersion_real
  _atom_type_scat_dispersion_imag
  _atom_type_scat_source
  _atom_type_scat_dispersion_source
 C 0.00313 0.00162 'NoSpherA2: Chem.Sci. 2021, DOI:10.1039/D0SC05526C'
 'Brennan, Cowan, Rev. Sci. Instrum., 1992, 63, 850'
 H 0.00000 0.00000 'NoSpherA2: Chem.Sci. 2021, DOI:10.1039/D0SC05526C'
 'Brennan, Cowan, Rev. Sci. Instrum., 1992, 63, 850'
 O 0.01085 0.00610 'NoSpherA2: Chem.Sci. 2021, DOI:10.1039/D0SC05526C'
 'Brennan, Cowan, Rev. Sci. Instrum., 1992, 63, 850'

_space_group_crystal_system        'monoclinic'
_space_group_IT_number             14
_space_group_name_H-M_alt          'P 1 21/n 1'
_space_group_name_Hall             '-P 2yn'
loop_
  _space_group_symop_id
  _space_group_symop_operation_xyz
 1 x,y,z
 2 -x+1/2,y+1/2,-z+1/2
 3 -x,-y,-z
 4 x-1/2,-y-1/2,z-1/2

_symmetry_Int_Tables_number        14
_cell_length_a                     4.633(5)
_cell_length_b                     8.400(1)
_cell_length_c                     6.577(3)
_cell_angle_alpha                  90
_cell_angle_beta                   100.37(6)
_cell_angle_gamma                  90
_cell_volume                       251.8(3)
_cell_formula_units_Z              4
_exptl_absorpt_coefficient_mu      0.092
_exptl_crystal_density_diffrn      1.162
_exptl_crystal_F_000               96.074
_diffrn_reflns_av_R_equivalents    0.0000
_diffrn_reflns_av_unetI/netI       0.0400
_diffrn_reflns_Laue_measured_fraction_full  1.0000
_diffrn_reflns_Laue_measured_fraction_max  1.0000
_diffrn_reflns_limit_h_max         6
_diffrn_reflns_limit_h_min         -9
_diffrn_reflns_limit_k_max         16
_diffrn_reflns_limit_k_min         0
_diffrn_reflns_limit_l_max         13
_diffrn_reflns_limit_l_min         -6
_diffrn_reflns_number              2081
_diffrn_reflns_point_group_measured_fraction_full  1.0000
_diffrn_reflns_point_group_measured_fraction_max  1.0000
_diffrn_reflns_theta_full          25.2398
_diffrn_reflns_theta_max           45.00
_diffrn_reflns_theta_min           3.98
_diffrn_measured_fraction_theta_full  1.0000
_diffrn_measured_fraction_theta_max  1.0000
_diffrn_radiation_type             'Mo K\a'
_diffrn_radiation_wavelength       0.71068
_reflns_Friedel_coverage           0.0
_reflns_limit_h_max                6
_reflns_limit_h_min                -9
_reflns_limit_k_max                16
_reflns_limit_k_min                0
_reflns_limit_l_max                13
_reflns_limit_l_min                -6
_reflns_number_gt                  1306
_reflns_number_total               2081
_reflns_threshold_expression       I>=2u(I)
_computing_molecular_graphics      'Olex2 1.5-dev (Dolomanov et al., 2009)'
_computing_publication_material    'Olex2 1.5-dev (Dolomanov et al., 2009)'
_computing_structure_refinement    'olex2.refine 1.5-dev (Bourhis et al., 2015)'
_refine_diff_density_max           0.1893
_refine_diff_density_min           -0.2676
_refine_diff_density_rms           0.0527
_refine_ls_d_res_high              0.5026
_refine_ls_d_res_low               5.1256
_refine_ls_goodness_of_fit_ref     0.7542
_refine_ls_hydrogen_treatment      refall
_refine_ls_matrix_type             full
_refine_ls_number_constraints      0
_refine_ls_number_parameters       64
_refine_ls_number_reflns           2081
_refine_ls_number_restraints       0
_refine_ls_R_factor_all            0.0567
_refine_ls_R_factor_gt             0.0270
_refine_ls_restrained_S_all        0.7542
_refine_ls_shift/su_max            -0.0002
_refine_ls_shift/su_mean           0.0001
_refine_ls_structure_factor_coef   Fsqd
_refine_ls_weighting_details
 'w=1/[\s^2^(Fo^2^)+(0.0347P)^2^+0.0065P] where P=(Fo^2^+2Fc^2^)/3'
_refine_ls_weighting_scheme        calc
_refine_ls_wR_factor_gt            0.0637
_refine_ls_wR_factor_ref           0.0725
_olex2_refinement_description
;
;
_olex2_refine_details
;
Refinement using NoSpherA2, an implementation of
NOn-SPHERical Atom-form-factors in Olex2.
Please cite:
F. Kleemiss et al. Chem. Sci. DOI 10.1039/D0SC05526C - 2021
NoSpherA2 implementation of HAR makes use of
tailor-made aspherical atomic form factors calculated
on-the-fly from a Hirshfeld-partitioned electron density (ED) - not from
spherical-atom form factors.

The ED is calculated from a gaussian basis set single determinant SCF
wavefunction - either Hartree-Fock or DFT using selected funtionals
 - for a fragment of the crystal.
This fragment can be embedded in an electrostatic crystal field by employing cluster charges
or modelled using implicit solvation models, depending on the software used.
The following options were used:
   SOFTWARE:       ORCA
   PARTITIONING:   NoSpherA2
   INT ACCURACY:   Normal
   METHOD:         PBE
   BASIS SET:      cc-pVTZ
   CHARGE:         0
   MULTIPLICITY:   1
   DATE:           2023-10-31_09-35-17
;
loop_
  _atom_site_label
  _atom_site_type_symbol
  _atom_site_fract_x
  _atom_site_fract_y
  _atom_site_fract_z
  _atom_site_U_iso_or_equiv
  _atom_site_adp_type
  _atom_site_occupancy
  _atom_site_refinement_flags_posn
 O1 O 0.11645(6) 0.83111(3) 0.12465(4) 0.02952(6) Uani 1.000000 .
 C2 C 0.14847(8) 0.93865(4) 0.29594(5) 0.02819(7) Uani 1.000000 .
 H2a H 0.2823(16) 0.8915(8) 0.4371(10) 0.059(2) Uani 1.000000 .
 H2b H 0.1740(15) 1.0634(7) 0.2569(10) 0.0507(18) Uani 1.000000 .
 C3 C -0.13427(9) 0.86466(5) 0.21813(6) 0.03216(7) Uani 1.000000 .
 H3a H -0.3067(16) 0.9322(9) 0.1207(11) 0.066(2) Uani 1.000000 .
 H3b H -0.2055(17) 0.7671(9) 0.3033(12) 0.067(2) Uani 1.000000 .

loop_
  _atom_site_aniso_label
  _atom_site_aniso_U_11
  _atom_site_aniso_U_22
  _atom_site_aniso_U_33
  _atom_site_aniso_U_12
  _atom_site_aniso_U_13
  _atom_site_aniso_U_23
 O1 0.03527(13) 0.02546(10) 0.02949(11) 0.00307(9) 0.01031(9) -0.00352(8)
 C2 0.03271(15) 0.02489(12) 0.02704(13) 0.00037(11) 0.00554(11) -0.00202(10)
 H2a 0.071(5) 0.062(5) 0.037(3) 0.019(4) -0.010(4) 0.002(4)
 H2b 0.064(5) 0.030(3) 0.060(4) -0.011(3) 0.017(4) -0.002(3)
 C3 0.03106(16) 0.03350(15) 0.03412(16) -0.00359(12) 0.01179(13) 0.00008(12)
 H3a 0.040(4) 0.100(6) 0.052(4) 0.024(4) -0.002(3) 0.013(4)
 H3b 0.070(5) 0.062(4) 0.074(5) -0.027(4) 0.028(5) 0.003(5)

loop_
  _geom_bond_atom_site_label_1
  _geom_bond_atom_site_label_2
  _geom_bond_distance
  _geom_bond_site_symmetry_2
  _geom_bond_publ_flag
 O1 C2 1.4307(6) . ?
 O1 C3 1.4366(13) . ?
 C2 H2a 1.094(6) . ?
 C2 H2b 1.090(6) . ?
 C2 C3 1.4569(14) . ?
 C3 H3a 1.089(7) . ?
 C3 H3b 1.078(7) . ?

loop_
  _geom_angle_atom_site_label_1
  _geom_angle_atom_site_label_2
  _geom_angle_atom_site_label_3
  _geom_angle
  _geom_angle_site_symmetry_1
  _geom_angle_site_symmetry_3
  _geom_angle_publ_flag
 C3 O1 C2 61.08(2) . . ?
 H2a C2 O1 113.7(3) . . ?
 H2b C2 O1 114.9(4) . . ?
 H2b C2 H2a 118.6(5) . . ?
 C3 C2 O1 59.66(2) . . ?
 C3 C2 H2a 118.7(4) . . ?
 C3 C2 H2b 117.1(3) . . ?
 C2 C3 O1 59.26(2) . . ?
 H3a C3 O1 114.5(4) . . ?
 H3a C3 C2 120.1(4) . . ?
 H3b C3 O1 114.8(4) . . ?
 H3b C3 C2 118.8(4) . . ?
 H3b C3 H3a 116.2(6) . . ?

loop_
  _diffrn_refln_index_h
  _diffrn_refln_index_k
  _diffrn_refln_index_l
  _diffrn_refln_intensity_net
  _diffrn_refln_intensity_u
 -9 0 1 0.15 0.23
 -9 0 3 0.03 0.17
 -9 0 5 0.25 0.2
 -9 1 0 0.08 0.19
 -9 1 1 0.07 0.21
 -9 1 2 0.03 0.14
 -9 1 3 0.19 0.16
 -9 1 4 0.2 0.19
 -9 2 0 0.09 0.23
 -9 2 1 0.04 0.15
 -9 2 2 0.13 0.2
 -9 2 3 0.17 0.2
 -9 2 4 0.09 0.2
 -9 3 1 0.07 0.22
 -9 3 2 0.01 0.07
 -9 3 3 0.06 0.2
 -8 0 -4 0.12 0.25
 -8 0 -2 0.07 0.26
 -8 0 0 1.97 0.18
 -8 0 2 3.41 0.2
 -8 0 4 0.43 0.17
 -8 0 6 0.64 0.18
 -8 0 8 1.3 0.2
 -8 1 -4 0.17 0.2
 -8 1 -3 0.13 0.2
 -8 1 -2 0.16 0.18
 -8 1 -1 0.13 0.19
 -8 1 0 0.02 0.11
 -8 1 1 0.2 0.14
 -8 1 2 0.57 0.18
 -8 1 3 0.47 0.35
 -8 1 4 0.44 0.21
 -8 1 5 0.14 0.2
 -8 1 6 0.14 0.17
 -8 1 7 0.13 0.2
 -8 1 8 0.05 0.19
 -8 2 -4 0.2 0.2
 -8 2 -3 0.18 0.16
 -8 2 -2 0.06 0.2
 -8 2 -1 0.44 0.13
 -8 2 0 0.02 0.1
 -8 2 1 2.53 0.69
 -8 2 2 0.11 0.2
 -8 2 3 1.05 0.34
 -8 2 4 0.63 0.12
 -8 2 5 0.35 0.21
 -8 2 6 0.22 0.14
 -8 2 7 0.97 0.13
 -8 2 8 0.01 0.05
 -8 3 -3 0.37 0.24
 -8 3 -2 0.15 0.21
 -8 3 -1 0.91 0.14
 -8 3 0 0.33 0.13
 -8 3 1 0.06 0.2
 -8 3 2 0.16 0.19
 -8 3 3 0.84 0.33
 -8 3 4 0.24 0.18
 -8 3 5 0.04 0.17
 -8 3 6 0.14 0.17
 -8 3 7 0.05 0.18
 -8 3 8 0.12 0.22
 -8 4 -3 0.09 0.23
 -8 4 -2 0.07 0.21
 -8 4 -1 0.1 0.21
 -8 4 0 0.65 0.2
 -8 4 1 0.09 0.19
 -8 4 2 0.65 0.12
 -8 4 3 0.28 0.13
 -8 4 4 0.1 0.2
 -8 4 5 1.13 0.23
 -8 4 6 0.25 0.14
 -8 4 7 0.04 0.16
 -8 5 -3 0.11 0.19
 -8 5 -2 0.74 0.19
 -8 5 -1 0.1 0.16
 -8 5 0 0.64 0.32
 -8 5 1 0.16 0.2
 -8 5 2 0.1 0.24
 -8 5 3 0.07 0.21
 -8 5 4 0.36 0.13
 -8 5 5 0.06 0.2
 -8 5 6 0.16 0.2
 -8 5 7 0.22 0.19
 -8 6 -2 0.18 0.16
 -8 6 -1 0.02 0.12
 -8 6 0 0.24 0.18
 -8 6 1 0.16 0.21
 -8 6 2 0.22 0.19
 -8 6 3 0.24 0.19
 -8 6 4 0.59 0.14
 -8 6 5 0.23 0.15
 -8 6 6 0.1 0.21
 -8 7 -1 0.47 0.13
 -8 7 0 0.06 0.2
 -8 7 1 0.22 0.19
 -8 7 2 0.61 0.13
 -8 7 3 0.2 0.15
 -8 7 4 0.1 0.18
 -8 7 5 0.07 0.22
 -8 8 1 0.28 0.14
 -8 8 2 0.13 0.2
 -8 8 3 0.13 0.2
 -7 0 -5 0.57 0.18
 -7 0 -3 0.6 0.16
 -7 0 -1 0.12 0.21
 -7 0 1 0.09 0.26
 -7 0 3 4.36 0.19
 -7 0 5 0.91 0.17
 -7 0 7 0.63 0.19
 -7 0 9 0.12 0.24
 -7 1 -6 0.05 0.18
 -7 1 -5 0.23 0.25
 -7 1 -4 0.17 0.18
 -7 1 -3 0.1 0.16
 -7 1 -2 0.55 0.12
 -7 1 -1 0.51 0.12
 -7 1 0 3.92 0.89
 -7 1 1 5.59 1.1
 -7 1 2 5.81 0.92
 -7 1 3 2.1 0.22
 -7 1 4 0.55 0.16
 -7 1 5 0.68 0.12
 -7 1 6 0.22 0.12
 -7 1 7 0.52 0.12
 -7 1 8 0.09 0.2
 -7 1 9 0.01 0.07
 -7 1 10 0.2 0.17
 -7 2 -6 0.16 0.16
 -7 2 -5 0.31 0.24
 -7 2 -4 0.43 0.18
 -7 2 -3 0.08 0.18
 -7 2 -2 0.05 0.17
 -7 2 -1 0.47 0.18
 -7 2 0 0.03 0.11
 -7 2 1 0.13 0.19
 -7 2 2 1.64 0.23
 -7 2 3 1.86 0.37
 -7 2 4 3.36 0.22
 -7 2 5 1.43 0.12
 -7 2 6 0.07 0.2
 -7 2 7 0.06 0.19
 -7 2 8 0.1 0.17
 -7 2 9 0.06 0.2
 -7 2 10 0.27 0.16
 -7 3 -6 0.21 0.15
 -7 3 -5 0.03 0.13
 -7 3 -4 0.11 0.21
 -7 3 -3 0.42 0.14
 -7 3 -2 0.17 0.13
 -7 3 -1 1.79 0.12
 -7 3 0 0.89 0.21
 -7 3 1 2.6 0.47
 -7 3 2 2.33 0.42
 -7 3 3 1.2 0.12
 -7 3 4 0.37 0.21
 -7 3 5 0.41 0.19
 -7 3 6 1.55 0.13
 -7 3 7 0.1 0.17
 -7 3 8 0.15 0.2
 -7 3 9 0.28 0.19
 -7 4 -6 0.11 0.3
 -7 4 -5 0.13 0.2
 -7 4 -4 0.06 0.19
 -7 4 -3 0.04 0.16
 -7 4 -2 0.57 0.19
 -7 4 -1 0.2 0.15
 -7 4 0 0.69 0.12
 -7 4 1 0.42 0.12
 -7 4 2 1.19 0.12
 -7 4 3 2.73 0.2
 -7 4 4 5.26 0.79
 -7 4 5 1.47 0.19
 -7 4 6 0.6 0.12
 -7 4 7 0.1 0.2
 -7 4 8 0.07 0.21
 -7 4 9 0.38 0.13
 -7 5 -5 0.05 0.18
 -7 5 -4 0.1 0.18
 -7 5 -3 0.04 0.15
 -7 5 -2 0.77 0.25
 -7 5 -1 0.13 0.18
 -7 5 0 0.37 0.12
 -7 5 1 0.39 0.13
 -7 5 2 0.13 0.19
 -7 5 3 0.06 0.18
 -7 5 4 0.37 0.12
 -7 5 5 1.49 0.13
 -7 5 6 0.51 0.14
 -7 5 7 0.25 0.14
 -7 5 8 0.4 0.28
 -7 5 9 0.34 0.13
 -7 6 -5 0.1 0.25
 -7 6 -4 0.2 0.16
 -7 6 -3 0.01 0.09
 -7 6 -2 0.11 0.18
 -7 6 -1 0.59 0.16
 -7 6 0 0.17 0.18
 -7 6 1 0.13 0.18
 -7 6 2 0.89 0.33
 -7 6 3 3.37 0.14
 -7 6 4 1.47 0.13
 -7 6 5 1.62 0.13
 -7 6 6 1.5 0.22
 -7 6 7 0.17 0.16
 -7 6 8 1.07 0.13
 -7 7 -4 0.37 0.28
 -7 7 -3 0.15 0.21
 -7 7 -2 0.1 0.18
 -7 7 -1 0.15 0.16
 -7 7 0 0.11 0.21
 -7 7 1 0.63 0.12
 -7 7 2 0.13 0.18
 -7 7 3 0.12 0.18
 -7 7 4 0.24 0.18
 -7 7 5 0.59 0.12
 -7 7 6 0.21 0.18
 -7 7 7 0.04 0.16
 -7 7 8 0.2 0.19
 -7 8 -3 0.53 0.13
 -7 8 -2 0.18 0.16
 -7 8 -1 0.04 0.13
 -7 8 0 0.02 0.11
 -7 8 1 0.35 0.13
 -7 8 2 0.66 0.17
 -7 8 3 0.23 0.21
 -7 8 4 0.85 0.12
 -7 8 5 0.81 0.12
 -7 8 6 0.18 0.15
 -7 8 7 1.86 0.13
 -7 9 -2 0.14 0.21
 -7 9 -1 0.15 0.21
 -7 9 0 0.57 0.3
 -7 9 1 0.14 0.17
 -7 9 2 0.84 0.12
 -7 9 3 0.06 0.2
 -7 9 4 0.1 0.24
 -7 9 5 0.03 0.11
 -7 9 6 0.47 0.13
 -7 10 -1 0.13 0.2
 -7 10 0 0.16 0.2
 -7 10 1 0.14 0.2
 -7 10 2 0.19 0.2
 -7 10 3 0.29 0.19
 -7 10 4 0.02 0.12
 -7 10 5 0.06 0.18
 -6 0 -4 4.01 0.19
 -6 0 -2 0.82 0.19
 -6 0 0 2.3 0.21
 -6 0 2 8.73 0.24
 -6 0 4 0.57 0.18
 -6 0 6 19.43 0.53
 -6 0 8 7.64 0.21
 -6 0 10 0.22 0.2
 -6 1 -5 0.55 0.13
 -6 1 -4 1.65 0.11
 -6 1 -3 1.11 0.11
 -6 1 -2 0.99 0.1
 -6 1 -1 0.01 0.09
 -6 1 0 0.68 0.18
 -6 1 1 1.23 0.21
 -6 1 2 0.24 0.22
 -6 1 3 0.11 0.21
 -6 1 4 9.23 0.49
 -6 1 5 0.69 0.19
 -6 1 6 1.2 0.14
 -6 1 7 0.28 0.12
 -6 1 8 0.82 0.12
 -6 1 9 0.22 0.13
 -6 1 10 0.04 0.15
 -6 1 11 0.25 0.12
 -6 2 -5 2.61 0.43
 -6 2 -4 0.1 0.2
 -6 2 -3 1.48 0.21
 -6 2 -2 2.77 0.12
 -6 2 -1 0.41 0.27
 -6 2 0 2.07 0.26
 -6 2 1 4.22 0.21
 -6 2 2 0.39 0.13
 -6 2 3 1.78 0.13
 -6 2 4 0.28 0.14
 -6 2 5 7.72 0.61
 -6 2 6 0.19 0.12
 -6 2 7 11.46 0.4
 -6 2 8 0.2 0.15
 -6 2 9 0.94 0.12
 -6 2 10 0.66 0.15
 -6 2 11 0.22 0.17
 -6 3 -5 0.07 0.14
 -6 3 -4 0.25 0.13
 -6 3 -3 2.5 0.12
 -6 3 -2 0.03 0.14
 -6 3 -1 0.14 0.21
 -6 3 0 0.11 0.18
 -6 3 1 0.23 0.13
 -6 3 2 0.09 0.19
 -6 3 3 14.93 0.27
 -6 3 4 0.46 0.19
 -6 3 5 13.21 0.69
 -6 3 6 0.16 0.17
 -6 3 7 0.05 0.17
 -6 3 8 0.09 0.17
 -6 3 9 0.83 0.12
 -6 3 10 0.14 0.21
 -6 3 11 0.16 0.18
 -6 4 -5 0.09 0.15
 -6 4 -4 0.54 0.12
 -6 4 -3 2.13 0.12
 -6 4 -2 0.02 0.11
 -6 4 -1 6.29 0.17
 -6 4 0 0.25 0.18
 -6 4 1 0.16 0.19
 -6 4 2 1.01 0.13
 -6 4 3 2.21 0.27
 -6 4 4 0.68 0.11
 -6 4 5 0.17 0.16
 -6 4 6 3.8 0.48
 -6 4 7 0.3 0.12
 -6 4 8 1.06 0.11
 -6 4 9 0.8 0.32
 -6 4 10 0.13 0.19
 -6 5 -5 0.07 0.21
 -6 5 -4 0.47 0.11
 -6 5 -3 0.1 0.18
 -6 5 -2 1.17 0.12
 -6 5 -1 0.23 0.12
 -6 5 0 0.68 0.12
 -6 5 1 1.57 0.12
 -6 5 2 7.12 0.14
 -6 5 3 0.16 0.16
 -6 5 4 18.49 0.37
 -6 5 5 0.53 0.11
 -6 5 6 3.37 0.13
 -6 5 7 0.18 0.14
 -6 5 8 0.54 0.12
 -6 5 9 0.63 0.18
 -6 5 10 0.22 0.15
 -6 6 -5 0.16 0.19
 -6 6 -4 0.03 0.11
 -6 6 -3 0.03 0.12
 -6 6 -2 2.67 0.13
 -6 6 -1 0.15 0.15
 -6 6 0 1.22 0.12
 -6 6 1 0.02 0.09
 -6 6 2 1.37 0.12
 -6 6 3 0.24 0.12
 -6 6 4 0.19 0.17
 -6 6 5 0.35 0.12
 -6 6 6 1.76 0.12
 -6 6 7 0.11 0.18
 -6 6 8 0.19 0.18
 -6 6 9 0.11 0.16
 -6 6 10 0.63 0.13
 -6 7 -5 0.07 0.22
 -6 7 -4 0.42 0.19
 -6 7 -3 0.19 0.14
 -6 7 -2 0.77 0.51
 -6 7 -1 0.68 0.12
 -6 7 0 3.11 0.25
 -6 7 1 2.82 0.3
 -6 7 2 2.3 0.12
 -6 7 3 8.14 0.51
 -6 7 4 0.14 0.14
 -6 7 5 4.12 0.13
 -6 7 6 0.22 0.17
 -6 7 7 0.04 0.17
 -6 7 8 1.24 0.12
 -6 7 9 0.05 0.16
 -6 8 -5 0.43 0.13
 -6 8 -4 0.19 0.15
 -6 8 -3 0.01 0.05
 -6 8 -2 0.12 0.18
 -6 8 -1 0.3 0.14
 -6 8 0 0.03 0.14
 -6 8 1 0.37 0.13
 -6 8 2 0.86 0.17
 -6 8 3 0.47 0.12
 -6 8 4 0.32 0.12
 -6 8 5 1.14 0.13
 -6 8 6 0.52 0.12
 -6 8 7 1.32 0.13
 -6 8 8 0.3 0.14
 -6 8 9 0.16 0.18
 -6 9 -5 0.29 0.14
 -6 9 -4 0.04 0.17
 -6 9 -3 0.47 0.19
 -6 9 -2 0.17 0.15
 -6 9 -1 0.69 0.27
 -6 9 0 0.89 0.27
 -6 9 1 3.3 0.44
 -6 9 2 2.1 0.28
 -6 9 3 0.3 0.12
 -6 9 4 1.14 0.12
 -6 9 5 0.08 0.17
 -6 9 6 0.14 0.18
 -6 9 7 0.9 0.18
 -6 9 8 0.15 0.15
 -6 10 -4 0.32 0.14
 -6 10 -3 0.08 0.23
 -6 10 -2 0.17 0.16
 -6 10 -1 0.2 0.19
 -6 10 0 0.3 0.13
 -6 10 1 0.16 0.15
 -6 10 2 0.2 0.14
 -6 10 3 0.86 0.12
 -6 10 4 0.31 0.13
 -6 10 5 0.19 0.19
 -6 10 6 1.23 0.18
 -6 10 7 0.52 0.13
 -6 11 -3 0.13 0.21
 -6 11 -2 0.19 0.2
 -6 11 -1 0.17 0.2
 -6 11 0 0.9 0.12
 -6 11 1 0.74 0.36
 -6 11 2 0.23 0.15
 -6 11 3 0.07 0.2
 -6 11 4 0.14 0.21
 -6 11 5 0.21 0.17
 -6 11 6 0.51 0.35
 -6 12 -1 0.47 0.15
 -6 12 0 0.1 0.25
 -6 12 1 0.21 0.15
 -6 12 2 0.42 0.13
 -6 12 3 0.09 0.2
 -6 12 4 0.13 0.19
 -5 0 -3 6.71 0.22
 -5 0 -1 0.31 0.16
 -5 0 1 20.22 0.5
 -5 0 3 2.22 0.15
 -5 0 5 11.4 0.28
 -5 0 7 0.76 0.19
 -5 0 9 2.28 0.17
 -5 0 11 0.07 0.24
 -5 1 -4 6.96 0.16
 -5 1 -3 1.32 0.19
 -5 1 -2 0.2 0.17
 -5 1 -1 8.74 0.16
 -5 1 0 6.37 0.91
 -5 1 1 7.77 0.34
 -5 1 2 4.09 0.12
 -5 1 3 0.3 0.19
 -5 1 4 7.86 0.15
 -5 1 5 6.09 0.17
 -5 1 6 21 0.41
 -5 1 7 19.23 0.34
 -5 1 8 7.66 0.38
 -5 1 9 1.79 0.13
 -5 1 10 0.1 0.18
 -5 1 11 0.34 0.13
 -5 1 12 0.22 0.13
 -5 2 -4 3.11 0.31
 -5 2 -3 6.11 0.43
 -5 2 -2 7.2 0.64
 -5 2 -1 6.3 0.2
 -5 2 0 0.97 0.1
 -5 2 1 0.19 0.12
 -5 2 2 6.37 0.14
 -5 2 3 0.82 0.11
 -5 2 4 4.24 0.13
 -5 2 5 3.34 0.13
 -5 2 6 4.71 0.15
 -5 2 7 0.11 0.17
 -5 2 8 0.97 0.14
 -5 2 9 2.41 0.12
 -5 2 10 1.06 0.12
 -5 2 11 0.61 0.13
 -5 3 -4 1.51 0.14
 -5 3 -3 2.39 0.36
 -5 3 -2 4.17 0.31
 -5 3 -1 0.05 0.18
 -5 3 0 14.22 0.35
 -5 3 1 2.56 0.21
 -5 3 2 0.28 0.11
 -5 3 3 12.76 0.24
 -5 3 4 2.3 0.12
 -5 3 5 15.48 0.3
 -5 3 6 6.92 0.58
 -5 3 7 5.44 0.18
 -5 3 8 5.3 0.2
 -5 3 9 0.67 0.22
 -5 3 10 0.12 0.19
 -5 3 11 0.06 0.19
 -5 4 -4 3.03 0.21
 -5 4 -3 6.6 0.91
 -5 4 -2 17.4 1.4
 -5 4 -1 5.56 0.14
 -5 4 0 2.56 0.12
 -5 4 1 0.56 0.11
 -5 4 2 0.04 0.15
 -5 4 3 1.91 0.12
 -5 4 4 5.27 0.14
 -5 4 5 3.06 0.14
 -5 4 6 1.96 0.14
 -5 4 7 0.3 0.11
 -5 4 8 3.56 0.13
 -5 4 9 1.95 0.28
 -5 4 10 3.49 0.13
 -5 4 11 0.29 0.18
 -5 5 -4 0.01 0.06
 -5 5 -3 0.64 0.13
 -5 5 -2 1.16 0.14
 -5 5 -1 8.91 0.63
 -5 5 0 0.93 0.14
 -5 5 1 1.37 0.17
 -5 5 2 3.87 0.13
 -5 5 3 4.71 0.48
 -5 5 4 11.05 0.26
 -5 5 5 0.05 0.18
 -5 5 6 0.97 0.11
 -5 5 7 3.26 0.12
 -5 5 8 0.31 0.26
 -5 5 9 0.15 0.18
 -5 5 10 0.18 0.15
 -5 5 11 0.15 0.15
 -5 6 -4 1.64 0.12
 -5 6 -3 6.67 0.24
 -5 6 -2 5.94 0.16
 -5 6 -1 6.1 0.16
 -5 6 0 10.16 0.67
 -5 6 1 0.59 0.12
 -5 6 2 10.05 0.48
 -5 6 3 0.22 0.18
 -5 6 4 2.28 0.13
 -5 6 5 4.23 1.4
 -5 6 6 0.46 0.11
 -5 6 7 0.2 0.12
 -5 6 8 1.6 0.12
 -5 6 9 4.06 0.14
 -5 6 10 0.63 0.13
 -5 6 11 0.44 0.13
 -5 7 -4 0.18 0.15
 -5 7 -3 0.28 0.12
 -5 7 -2 1.65 0.22
 -5 7 -1 2.07 0.31
 -5 7 0 2.03 0.14
 -5 7 1 0.58 0.22
 -5 7 2 0.47 0.3
 -5 7 3 3.53 0.17
 -5 7 4 0.3 0.16
 -5 7 5 0.22 0.13
 -5 7 6 0.71 0.12
 -5 7 7 2.17 0.12
 -5 7 8 0.25 0.13
 -5 7 9 0.01 0.08
 -5 7 10 0.1 0.17
 -5 8 -4 0.54 0.11
 -5 8 -3 0.96 0.24
 -5 8 -2 1.82 0.12
 -5 8 -1 4.49 0.47
 -5 8 0 0.22 0.12
 -5 8 1 13.62 1.6
 -5 8 2 1.05 0.11
 -5 8 3 5.34 0.35
 -5 8 4 0.99 0.11
 -5 8 5 0.43 0.12
 -5 8 6 0.41 0.13
 -5 8 7 1.58 0.12
 -5 8 8 1.05 0.12
 -5 8 9 0.27 0.12
 -5 8 10 0.59 0.13
 -5 9 -4 1.85 0.13
 -5 9 -3 0.11 0.17
 -5 9 -2 0.08 0.15
 -5 9 -1 0.07 0.18
 -5 9 0 1.98 0.12
 -5 9 1 0.16 0.16
 -5 9 2 0.22 0.17
 -5 9 3 0.7 0.11
 -5 9 4 0.35 0.11
 -5 9 5 1.37 0.12
 -5 9 6 2.25 0.26
 -5 9 7 0.14 0.16
 -5 9 8 1.64 0.18
 -5 9 9 0.07 0.2
 -5 10 -4 0.15 0.19
 -5 10 -3 0.16 0.19
 -5 10 -2 0.14 0.19
 -5 10 -1 0.17 0.13
 -5 10 0 4.41 0.44
 -5 10 1 1.11 0.12
 -5 10 2 6.12 0.81
 -5 10 3 0.19 0.13
 -5 10 4 0.17 0.14
 -5 10 5 0.27 0.15
 -5 10 6 1.53 0.12
 -5 10 7 0.12 0.18
 -5 10 8 0.05 0.13
 -5 11 -4 0.03 0.14
 -5 11 -3 0.43 0.18
 -5 11 -2 0.12 0.19
 -5 11 -1 0.4 0.19
 -5 11 0 0.23 0.13
 -5 11 1 0.22 0.13
 -5 11 2 1.17 0.13
 -5 11 3 0.05 0.17
 -5 11 4 3.87 0.47
 -5 11 5 0.58 0.12
 -5 11 6 0.96 0.3
 -5 11 7 1.53 0.23
 -5 11 8 0.05 0.2
 -5 12 -4 0.02 0.12
 -5 12 -3 0.23 0.16
 -5 12 -2 0.24 0.19
 -5 12 -1 0.08 0.21
 -5 12 0 0.14 0.2
 -5 12 1 1.79 0.16
 -5 12 2 0.17 0.19
 -5 12 3 0.17 0.16
 -5 12 4 0.13 0.16
 -5 12 5 0.82 0.13
 -5 12 6 0.14 0.16
 -5 13 -2 0.11 0.19
 -5 13 -1 0.46 0.13
 -5 13 0 0.16 0.18
 -5 13 1 0.2 0.17
 -5 13 2 0.14 0.21
 -5 13 3 2.74 0.21
 -5 13 4 0.12 0.18
 -5 13 5 1.67 0.13
 -5 14 1 0.06 0.14
 -5 14 2 0.17 0.23
 -4 0 -2 12.86 0.32
 -4 0 0 190.22 1.73
 -4 0 2 111.96 1.3
 -4 0 4 1.91 0.19
 -4 0 6 5.89 0.19
 -4 0 8 7.7 0.24
 -4 0 10 0.56 0.16
 -4 0 12 3.01 0.2
 -4 1 -3 0.44 0.14
 -4 1 -2 17.66 1.81
 -4 1 -1 0.02 0.09
 -4 1 0 1.18 0.1
 -4 1 1 13.16 0.24
 -4 1 2 41.42 0.58
 -4 1 3 6.88 0.13
 -4 1 4 2.83 0.1
 -4 1 5 4.43 0.12
 -4 1 6 6.05 0.14
 -4 1 7 3.14 0.13
 -4 1 8 0.08 0.21
 -4 1 9 0.18 0.12
 -4 1 10 3.21 0.26
 -4 1 11 0.17 0.15
 -4 1 12 0.15 0.15
 -4 2 -3 0.16 0.12
 -4 2 -2 1.22 0.2
 -4 2 -1 53.28 0.68
 -4 2 0 1.75 0.14
 -4 2 1 125.19 1.43
 -4 2 2 3.59 0.1
 -4 2 3 14.41 0.28
 -4 2 4 25.51 0.59
 -4 2 5 1.04 0.11
 -4 2 6 1.78 0.12
 -4 2 7 8.17 0.16
 -4 2 8 1.97 0.14
 -4 2 9 0.72 0.11
 -4 2 10 0.37 0.12
 -4 2 11 1.93 0.15
 -4 2 12 0.03 0.14
 -4 3 -3 22.35 2.73
 -4 3 -2 3.48 0.52
 -4 3 -1 38.97 0.71
 -4 3 0 2.7 0.3
 -4 3 1 6.2 0.19
 -4 3 2 0.14 0.11
 -4 3 3 38.25 0.59
 -4 3 4 1.73 0.11
 -4 3 5 0.14 0.16
 -4 3 6 0.79 0.12
 -4 3 7 0.11 0.19
 -4 3 8 0.11 0.16
 -4 3 9 7.64 0.15
 -4 3 10 0.02 0.1
 -4 3 11 2.84 0.13
 -4 3 12 0.06 0.19
 -4 4 -3 4.91 0.26
 -4 4 -2 3.75 0.27
 -4 4 -1 0.83 0.1
 -4 4 0 26.1 1.36
 -4 4 1 2.5 0.1
 -4 4 2 13.51 0.27
 -4 4 3 26.04 0.84
 -4 4 4 0.54 0.15
 -4 4 5 20.92 0.37
 -4 4 6 2.16 0.12
 -4 4 7 1.37 0.13
 -4 4 8 1.68 0.11
 -4 4 9 3.29 0.13
 -4 4 10 0.07 0.21
 -4 4 11 0.13 0.16
 -4 4 12 0.46 0.12
 -4 5 -3 0.86 0.12
 -4 5 -2 42.23 0.7
 -4 5 -1 4.13 0.13
 -4 5 0 7.38 0.26
 -4 5 1 1.1 0.1
 -4 5 2 20.1 0.35
 -4 5 3 5.38 0.18
 -4 5 4 12.29 0.21
 -4 5 5 0.65 0.12
 -4 5 6 1.48 0.13
 -4 5 7 2.47 0.14
 -4 5 8 7.25 0.23
 -4 5 9 0.14 0.14
 -4 5 10 6.3 0.47
 -4 5 11 0.12 0.18
 -4 6 -3 1.02 0.13
 -4 6 -2 0.22 0.15
 -4 6 -1 0.62 0.11
 -4 6 0 9.61 0.18
 -4 6 1 0.16 0.12
 -4 6 2 0.14 0.15
 -4 6 3 0.05 0.16
 -4 6 4 17.7 0.58
 -4 6 5 0.99 0.12
 -4 6 6 0.38 0.13
 -4 6 7 0.36 0.16
 -4 6 8 4.41 0.13
 -4 6 9 0.06 0.19
 -4 6 10 0.3 0.13
 -4 6 11 0.03 0.11
 -4 7 -3 12.14 0.38
 -4 7 -2 0.57 0.12
 -4 7 -1 12.3 0.23
 -4 7 0 0.12 0.18
 -4 7 1 0.13 0.16
 -4 7 2 9.91 0.25
 -4 7 3 6.41 0.34
 -4 7 4 0.06 0.19
 -4 7 5 3.57 0.36
 -4 7 6 9.98 0.55
 -4 7 7 4.76 0.13
 -4 7 8 1.8 0.13
 -4 7 9 5.01 0.17
 -4 7 10 0.13 0.2
 -4 7 11 0.65 0.13
 -4 8 -3 0.53 0.2
 -4 8 -2 0.42 0.19
 -4 8 -1 4.66 0.15
 -4 8 0 2.9 0.14
 -4 8 1 9.04 0.18
 -4 8 2 1.11 0.13
 -4 8 3 0.22 0.13
 -4 8 4 1.49 0.16
 -4 8 5 0.48 0.1
 -4 8 6 0.67 0.11
 -4 8 7 1.86 0.11
 -4 8 8 0.37 0.12
 -4 8 9 0.51 0.16
 -4 8 10 0.05 0.16
 -4 9 -3 0.7 0.11
 -4 9 -2 1.15 0.14
 -4 9 -1 0.05 0.16
 -4 9 0 0.22 0.18
 -4 9 1 5.11 0.16
 -4 9 2 0.18 0.18
 -4 9 3 2.26 0.25
 -4 9 4 0.58 0.11
 -4 9 5 5.8 0.15
 -4 9 6 2.46 0.16
 -4 9 7 6.51 0.69
 -4 9 8 2.36 0.13
 -4 9 9 0.27 0.13
 -4 9 10 0.18 0.16
 -4 10 -3 2.09 0.12
 -4 10 -2 0.82 0.11
 -4 10 -1 0.47 0.11
 -4 10 0 6.23 0.14
 -4 10 1 2.04 0.16
 -4 10 2 3.53 0.43
 -4 10 3 1.1 0.17
 -4 10 4 0.65 0.35
 -4 10 5 2.58 0.2
 -4 10 6 0.75 0.12
 -4 10 7 0.03 0.13
 -4 10 8 0.16 0.18
 -4 10 9 0.18 0.16
 -4 11 -3 0.03 0.13
 -4 11 -2 0.24 0.17
 -4 11 -1 0.66 0.12
 -4 11 0 0.65 0.12
 -4 11 1 0.06 0.17
 -4 11 2 2.12 0.22
 -4 11 3 0.45 0.11
 -4 11 4 0.24 0.12
 -4 11 5 0.22 0.17
 -4 11 6 3.57 0.13
 -4 11 7 0.87 0.12
 -4 11 8 0.37 0.12
 -4 12 -3 0.31 0.13
 -4 12 -2 0.48 0.12
 -4 12 -1 1.15 0.13
 -4 12 0 0.42 0.14
 -4 12 1 1.73 0.16
 -4 12 2 0.24 0.12
 -4 12 3 1.94 0.17
 -4 12 4 3.74 0.22
 -4 12 5 1.53 0.15
 -4 12 6 0.25 0.14
 -4 12 7 0.18 0.17
 -4 12 8 0.35 0.13
 -4 13 -3 0.05 0.18
 -4 13 -2 1.36 0.15
 -4 13 -1 0.15 0.17
 -4 13 0 0.17 0.19
 -4 13 1 0.22 0.15
 -4 13 2 0.92 0.12
 -4 13 3 0.15 0.2
 -4 13 4 0.22 0.17
 -4 13 5 0.46 0.14
 -4 13 6 0.41 0.15
 -4 14 -3 0.18 0.18
 -4 14 -2 0.41 0.21
 -4 14 -1 0.04 0.17
 -4 14 0 0.24 0.2
 -4 14 1 0.2 0.14
 -4 14 2 0.25 0.14
 -4 14 3 2.09 0.13
 -4 14 4 1.24 0.13
 -4 14 5 0.91 0.13
 -4 15 0 0.15 0.2
 -4 15 1 0.03 0.11
 -4 15 2 0.06 0.23
 -3 0 -1 52.39 0.8
 -3 0 1 1.9 0.1
 -3 0 3 89.35 1.07
 -3 0 5 1.82 0.13
 -3 0 7 10.32 0.29
 -3 0 9 0.29 0.17
 -3 0 11 3.69 0.2
 -3 1 -2 22.71 2.11
 -3 1 -1 21.48 1.42
 -3 1 0 158.13 7.33
 -3 1 1 264.87 10.24
 -3 1 2 152.03 4.91
 -3 1 3 16.98 0.26
 -3 1 4 1.24 0.54
 -3 1 5 42.43 1
 -3 1 6 16.5 0.32
 -3 1 7 5.2 0.13
 -3 1 8 3.19 0.13
 -3 1 9 0.13 0.13
 -3 1 10 1.61 0.18
 -3 1 11 0.58 0.12
 -3 1 12 1.51 0.09
 -3 2 -2 4.24 0.3
 -3 2 -1 16.16 0.68
 -3 2 0 21.39 0.57
 -3 2 1 4.43 0.16
 -3 2 2 47.59 1.33
 -3 2 3 79.49 2.66
 -3 2 4 47.99 0.9
 -3 2 5 15.44 0.29
 -3 2 6 1.07 0.22
 -3 2 7 0.07 0.19
 -3 2 8 0.48 0.12
 -3 2 9 0.23 0.19
 -3 2 10 2.62 0.12
 -3 2 11 0.19 0.17
 -3 2 12 1.04 0.1
 -3 3 -2 14.19 0.27
 -3 3 -1 33.37 2.13
 -3 3 0 42.01 3.88
 -3 3 1 33.5 0.48
 -3 3 2 64.29 0.88
 -3 3 3 5.09 0.12
 -3 3 4 18.15 0.29
 -3 3 5 0.83 0.16
 -3 3 6 14.3 0.25
 -3 3 7 4.26 0.13
 -3 3 8 2.23 0.21
 -3 3 9 4.67 0.13
 -3 3 10 0.85 0.11
 -3 3 11 1.97 0.1
 -3 3 12 0.57 0.1
 -3 4 -2 12.9 0.22
 -3 4 -1 3.89 2.38
 -3 4 0 8.44 0.46
 -3 4 1 13.87 0.63
 -3 4 2 86.61 0.77
 -3 4 3 62.75 0.82
 -3 4 4 91.6 0.87
 -3 4 5 15.55 0.4
 -3 4 6 1.32 0.19
 -3 4 7 0.88 0.11
 -3 4 8 0.27 0.17
 -3 4 9 1.39 0.11
 -3 4 10 0.63 0.17
 -3 4 11 0.74 0.1
 -3 4 12 0.06 0.16
 -3 5 -2 21.98 0.34
 -3 5 -1 1.25 0.1
 -3 5 0 0.43 0.09
 -3 5 1 24.14 0.78
 -3 5 2 0.95 0.09
 -3 5 3 0.05 0.14
 -3 5 4 2.89 0.11
 -3 5 5 10.24 0.2
 -3 5 6 1.21 0.11
 -3 5 7 0.44 0.12
 -3 5 8 2.21 0.15
 -3 5 9 3.75 0.18
 -3 5 10 1.91 0.12
 -3 5 11 0.11 0.14
 -3 5 12 0.13 0.12
 -3 6 -2 0.07 0.15
 -3 6 -1 16.22 0.56
 -3 6 0 13.18 0.9
 -3 6 1 4.67 0.11
 -3 6 2 30.5 0.54
 -3 6 3 79.78 0.88
 -3 6 4 23.98 0.95
 -3 6 5 11.48 0.22
 -3 6 6 14.05 0.26
 -3 6 7 1.74 0.29
 -3 6 8 4.64 0.38
 -3 6 9 0.2 0.12
 -3 6 10 0.36 0.1
 -3 6 11 0.57 0.1
 -3 6 12 0.18 0.16
 -3 7 -2 2.13 0.14
 -3 7 -1 0.03 0.11
 -3 7 0 0.36 0.11
 -3 7 1 19.32 0.47
 -3 7 2 0.67 0.27
 -3 7 3 0.65 0.12
 -3 7 4 1.61 0.11
 -3 7 5 12.43 1.76
 -3 7 6 0.04 0.16
 -3 7 7 0.71 0.19
 -3 7 8 1.61 0.14
 -3 7 9 1.12 0.12
 -3 7 10 0.25 0.13
 -3 7 11 0.12 0.17
 -3 8 -2 1.11 0.25
 -3 8 -1 8.4 0.31
 -3 8 0 2.05 0.11
 -3 8 1 16.47 0.52
 -3 8 2 10.61 0.21
 -3 8 3 6.68 0.23
 -3 8 4 8.97 0.23
 -3 8 5 11.47 0.72
 -3 8 6 0.85 0.13
 -3 8 7 11.47 0.84
 -3 8 8 0.33 0.15
 -3 8 9 1.22 0.27
 -3 8 10 0.46 0.1
 -3 8 11 0.31 0.1
 -3 9 -2 0.23 0.14
 -3 9 -1 1.48 0.12
 -3 9 0 13.3 0.25
 -3 9 1 0.17 0.14
 -3 9 2 12.98 0.24
 -3 9 3 0.07 0.22
 -3 9 4 3.13 0.14
 -3 9 5 0.14 0.15
 -3 9 6 5.54 0.61
 -3 9 7 0.2 0.12
 -3 9 8 0.07 0.2
 -3 9 9 0.15 0.2
 -3 9 10 0.18 0.12
 -3 10 -2 0.75 0.11
 -3 10 -1 0.39 0.34
 -3 10 0 9.71 0.46
 -3 10 1 0.05 0.18
 -3 10 2 1.04 0.16
 -3 10 3 0.62 0.39
 -3 10 4 0.33 0.11
 -3 10 5 0.59 0.11
 -3 10 6 6.19 0.29
 -3 10 7 0.76 0.13
 -3 10 8 2.87 0.38
 -3 10 9 0.16 0.12
 -3 10 10 0.14 0.13
 -3 11 -2 7.5 0.22
 -3 11 -1 1.46 0.12
 -3 11 0 1.68 0.1
 -3 11 1 7.19 0.22
 -3 11 2 0.07 0.19
 -3 11 3 0.07 0.19
 -3 11 4 0.65 0.11
 -3 11 5 3.44 0.19
 -3 11 6 0.3 0.12
 -3 11 7 0.36 0.23
 -3 11 8 0.68 0.2
 -3 11 9 0.01 0.05
 -3 12 -2 0.52 0.11
 -3 12 -1 2.66 0.25
 -3 12 0 0.16 0.16
 -3 12 1 0.5 0.12
 -3 12 2 0.21 0.12
 -3 12 3 1.22 0.12
 -3 12 4 0.92 0.12
 -3 12 5 0.33 0.13
 -3 12 6 0.33 0.13
 -3 12 7 1.81 0.12
 -3 12 8 0.04 0.15
 -3 13 -2 0.11 0.18
 -3 13 -1 4.06 0.14
 -3 13 0 0.33 0.12
 -3 13 1 0.14 0.17
 -3 13 2 0.25 0.13
 -3 13 3 0.29 0.2
 -3 13 4 0.27 0.13
 -3 13 5 0.72 0.12
 -3 13 6 0.17 0.13
 -3 13 7 0.3 0.17
 -3 14 -2 0.31 0.17
 -3 14 -1 0.68 0.18
 -3 14 0 0.35 0.13
 -3 14 1 0.71 0.55
 -3 14 2 0.66 0.12
 -3 14 3 0.69 0.14
 -3 14 4 0.73 0.13
 -3 14 5 0.32 0.12
 -3 14 6 0.16 0.18
 -3 15 -2 2.22 0.16
 -3 15 -1 0.21 0.18
 -3 15 0 0.24 0.13
 -3 15 1 0.21 0.14
 -3 15 2 0.11 0.19
 -3 15 3 0.2 0.17
 -3 15 4 0.45 0.17
 -2 0 0 66.77 0.71
 -2 0 2 202.43 1.33
 -2 0 4 78.66 0.95
 -2 0 6 194.44 1.79
 -2 0 8 24.28 0.41
 -2 0 10 0.1 0.16
 -2 0 12 0.19 0.17
 -2 1 -1 54.29 2.81
 -2 1 0 95.89 2.65
 -2 1 1 129.84 5.23
 -2 1 2 8.85 0.16
 -2 1 3 10.23 0.29
 -2 1 4 154.95 2.02
 -2 1 5 10.13 0.19
 -2 1 6 3.03 0.16
 -2 1 7 0.53 0.1
 -2 1 8 5.11 0.14
 -2 1 9 0.22 0.11
 -2 1 10 0.11 0.15
 -2 1 11 1.3 0.09
 -2 1 12 0.66 0.12
 -2 1 13 0.22 0.15
 -2 2 -1 9.93 0.36
 -2 2 0 14.17 0.27
 -2 2 1 101.95 1.28
 -2 2 2 102.25 1.36
 -2 2 3 0.58 0.16
 -2 2 4 23.36 0.41
 -2 2 5 138.99 1.45
 -2 2 6 0.09 0.16
 -2 2 7 58.68 0.78
 -2 2 8 1.31 0.14
 -2 2 9 1.52 0.09
 -2 2 10 1.8 0.08
 -2 2 11 0.1 0.16
 -2 2 12 0.14 0.17
 -2 3 -1 4.29 0.38
 -2 3 0 5.28 0.33
 -2 3 1 0.04 0.11
 -2 3 2 1.7 0.07
 -2 3 3 229.86 6.72
 -2 3 4 0.16 0.12
 -2 3 5 80.44 0.78
 -2 3 6 0.26 0.18
 -2 3 7 4.21 0.17
 -2 3 8 1.73 0.15
 -2 3 9 5.22 0.12
 -2 3 10 1.34 0.09
 -2 3 11 0.07 0.14
 -2 3 12 0.39 0.13
 -2 4 -1 97.66 4.26
 -2 4 0 0.12 0.09
 -2 4 1 40.06 0.95
 -2 4 2 4.85 0.13
 -2 4 3 114.41 2.12
 -2 4 4 16.03 0.54
 -2 4 5 0.06 0.16
 -2 4 6 24.21 0.71
 -2 4 7 0.17 0.13
 -2 4 8 2.51 0.1
 -2 4 9 4.26 0.09
 -2 4 10 0.07 0.14
 -2 4 11 0.99 0.1
 -2 4 12 0.13 0.16
 -2 5 -1 11.04 0.63
 -2 5 0 4.83 0.2
 -2 5 1 20.48 0.43
 -2 5 2 75.4 0.7
 -2 5 3 1.89 0.23
 -2 5 4 123.62 3.47
 -2 5 5 2.72 0.21
 -2 5 6 2.35 0.31
 -2 5 7 2.57 0.19
 -2 5 8 8.78 0.27
 -2 5 9 2.02 0.07
 -2 5 10 1.33 0.1
 -2 5 11 0.08 0.17
 -2 5 12 0.1 0.15
 -2 6 -1 0.08 0.13
 -2 6 0 4.93 0.11
 -2 6 1 0.39 0.09
 -2 6 2 58.33 2.44
 -2 6 3 1.18 0.1
 -2 6 4 3.12 0.21
 -2 6 5 0.13 0.15
 -2 6 6 7.45 0.15
 -2 6 7 0.27 0.11
 -2 6 8 0.19 0.11
 -2 6 9 0.1 0.14
 -2 6 10 1.83 0.15
 -2 6 11 0.26 0.12
 -2 6 12 0.06 0.13
 -2 7 -1 25.52 0.6
 -2 7 0 68.41 0.74
 -2 7 1 36.18 0.98
 -2 7 2 11.85 0.36
 -2 7 3 57.48 2.07
 -2 7 4 4.97 0.13
 -2 7 5 11.62 0.35
 -2 7 6 0.04 0.15
 -2 7 7 1.09 0.13
 -2 7 8 2.92 0.21
 -2 7 9 1.74 0.25
 -2 7 10 0.05 0.16
 -2 7 11 0.26 0.1
 -2 8 -1 6.23 0.13
 -2 8 0 0.03 0.11
 -2 8 1 4.68 0.12
 -2 8 2 6.45 0.13
 -2 8 3 2.84 0.12
 -2 8 4 0.32 0.14
 -2 8 5 9.41 0.23
 -2 8 6 5.96 0.13
 -2 8 7 4.04 0.1
 -2 8 8 0.63 0.09
 -2 8 9 0.19 0.15
 -2 8 10 0.47 0.1
 -2 8 11 0.06 0.16
 -2 9 -1 26.57 0.56
 -2 9 0 16.55 0.42
 -2 9 1 43.79 1.59
 -2 9 2 14.52 0.53
 -2 9 3 0.26 0.12
 -2 9 4 2.34 0.17
 -2 9 5 0.72 0.13
 -2 9 6 0.12 0.16
 -2 9 7 1.78 0.13
 -2 9 8 0.1 0.16
 -2 9 9 0.28 0.2
 -2 9 10 0.09 0.17
 -2 10 -1 3.41 0.13
 -2 10 0 0.57 0.21
 -2 10 1 3.21 0.13
 -2 10 2 0.06 0.2
 -2 10 3 3.49 0.14
 -2 10 4 5.52 0.22
 -2 10 5 2.43 0.2
 -2 10 6 6.88 0.44
 -2 10 7 1.8 0.18
 -2 10 8 0.87 0.09
 -2 10 9 0.38 0.23
 -2 10 10 0.13 0.17
 -2 11 -1 2.4 0.14
 -2 11 0 15.08 1.22
 -2 11 1 4.08 0.35
 -2 11 2 3.59 0.15
 -2 11 3 0.2 0.11
 -2 11 4 0.3 0.15
 -2 11 5 0.82 0.18
 -2 11 6 0.11 0.16
 -2 11 7 0.32 0.12
 -2 11 8 0.18 0.13
 -2 11 9 0.47 0.2
 -2 12 -1 2.25 0.12
 -2 12 0 0.39 0.12
 -2 12 1 0.05 0.16
 -2 12 2 4.32 0.13
 -2 12 3 3.12 0.17
 -2 12 4 0.42 0.18
 -2 12 5 3.42 0.25
 -2 12 6 0.64 0.1
 -2 12 7 0.94 0.12
 -2 12 8 0.28 0.17
 -2 12 9 0.29 0.12
 -2 13 -1 0.27 0.12
 -2 13 0 1.33 0.12
 -2 13 1 0.41 0.11
 -2 13 2 0.03 0.11
 -2 13 3 0.06 0.19
 -2 13 4 2.25 0.13
 -2 13 5 0.1 0.16
 -2 13 6 0.11 0.17
 -2 13 7 0.22 0.12
 -2 13 8 0.99 0.16
 -2 14 -1 1.77 0.13
 -2 14 0 0.19 0.14
 -2 14 1 0.56 0.12
 -2 14 2 1.66 0.11
 -2 14 3 1.26 0.12
 -2 14 4 1.12 0.1
 -2 14 5 0.06 0.16
 -2 14 6 0.14 0.14
 -2 15 -1 0.02 0.08
 -2 15 0 0.45 0.13
 -2 15 1 0.35 0.12
 -2 15 2 0.45 0.13
 -2 15 3 0.61 0.12
 -2 15 4 0.05 0.15
 -2 15 5 0.31 0.11
 -2 16 -1 0.48 0.11
 -2 16 0 0.14 0.17
 -2 16 1 0.3 0.14
 -2 16 2 0.19 0.14
 -1 0 1 671.72 4.49
 -1 0 3 7.21 0.2
 -1 0 5 113.21 0.84
 -1 0 7 2.13 0.15
 -1 0 9 2.92 0.19
 -1 0 11 0.16 0.19
 -1 0 13 0.32 0.17
 -1 1 0 687.51 28.78
 -1 1 1 326.26 6.17
 -1 1 2 314.4 6.64
 -1 1 3 15.98 0.27
 -1 1 4 67.63 0.57
 -1 1 5 23.72 0.3
 -1 1 6 60.69 0.91
 -1 1 7 42.1 3.39
 -1 1 8 7.84 0.15
 -1 1 9 0.58 0.13
 -1 1 10 0.66 0.11
 -1 1 11 1.5 0.12
 -1 1 12 0.73 0.12
 -1 1 13 0.05 0.16
 -1 2 0 78.74 5.67
 -1 2 1 3.28 0.09
 -1 2 2 49.57 1.45
 -1 2 3 2.84 0.2
 -1 2 4 85.46 4.36
 -1 2 5 9.53 0.15
 -1 2 6 19.02 0.43
 -1 2 7 4.12 0.42
 -1 2 8 2.61 0.21
 -1 2 9 8.3 0.62
 -1 2 10 1.14 0.18
 -1 2 11 0.75 0.11
 -1 2 12 0.15 0.17
 -1 3 0 312.05 5.76
 -1 3 1 231.13 4.38
 -1 3 2 74.01 2.32
 -1 3 3 189.61 3.53
 -1 3 4 36.51 0.39
 -1 3 5 49.83 0.82
 -1 3 6 27.41 1.09
 -1 3 7 6.05 0.56
 -1 3 8 8.71 0.37
 -1 3 9 0.19 0.11
 -1 3 10 0.45 0.11
 -1 3 11 0.17 0.14
 -1 3 12 0.2 0.13
 -1 4 0 0.4 0.06
 -1 4 1 4.83 0.09
 -1 4 2 45 1.38
 -1 4 3 6.73 0.11
 -1 4 4 14.93 0.34
 -1 4 5 5 0.09
 -1 4 6 0.1 0.15
 -1 4 7 2.95 0.49
 -1 4 8 19.12 2.56
 -1 4 9 4.51 0.33
 -1 4 10 6.37 0.18
 -1 4 11 0.26 0.13
 -1 4 12 0.13 0.15
 -1 5 0 2.81 0.12
 -1 5 1 0.09 0.09
 -1 5 2 105.42 3.36
 -1 5 3 73.01 1.46
 -1 5 4 53.85 0.51
 -1 5 5 0.15 0.1
 -1 5 6 0.29 0.09
 -1 5 7 11.93 0.74
 -1 5 8 2.35 1.74
 -1 5 9 0.25 0.14
 -1 5 10 0.1 0.16
 -1 5 11 0.23 0.15
 -1 5 12 0.09 0.18
 -1 6 0 43.45 2.3
 -1 6 1 37.26 1.26
 -1 6 2 14.81 0.39
 -1 6 3 0.96 0.66
 -1 6 4 0.49 0.09
 -1 6 5 11.85 0.23
 -1 6 6 10.32 0.65
 -1 6 7 4.12 0.14
 -1 6 8 6.8 0.22
 -1 6 9 10.07 0.28
 -1 6 10 1.5 0.13
 -1 6 11 0.46 0.13
 -1 6 12 0.32 0.14
 -1 7 0 4.44 0.24
 -1 7 1 0.12 0.12
 -1 7 2 9.07 0.27
 -1 7 3 26.47 0.59
 -1 7 4 1.76 0.1
 -1 7 5 0.12 0.14
 -1 7 6 2.91 0.1
 -1 7 7 6.32 0.26
 -1 7 8 0.96 0.09
 -1 7 9 0 0.04
 -1 7 10 0.07 0.19
 -1 7 11 0.88 0.19
 -1 8 0 3.39 0.34
 -1 8 1 62.01 3.29
 -1 8 2 7.12 0.26
 -1 8 3 2.15 0.09
 -1 8 4 5.53 0.13
 -1 8 5 15.44 0.53
 -1 8 6 0.99 0.1
 -1 8 7 7.95 0.23
 -1 8 8 2.66 0.27
 -1 8 9 1.15 0.22
 -1 8 10 0.48 0.12
 -1 8 11 0.66 0.12
 -1 9 0 24.82 1.11
 -1 9 1 0.92 0.15
 -1 9 2 0.19 0.11
 -1 9 3 3.35 0.1
 -1 9 4 0.17 0.17
 -1 9 5 3.16 0.14
 -1 9 6 7.4 0.3
 -1 9 7 0.47 0.09
 -1 9 8 1.41 0.1
 -1 9 9 0.01 0.08
 -1 9 10 1.01 0.12
 -1 9 11 0.19 0.19
 -1 10 0 27.19 1.71
 -1 10 1 3.51 0.1
 -1 10 2 14.28 0.55
 -1 10 3 0.24 0.15
 -1 10 4 4.67 0.15
 -1 10 5 1.86 0.23
 -1 10 6 7.4 0.4
 -1 10 7 0.2 0.14
 -1 10 8 0.23 0.11
 -1 10 9 0.04 0.12
 -1 10 10 0.18 0.13
 -1 11 0 0.22 0.13
 -1 11 1 2.68 0.11
 -1 11 2 12.81 0.4
 -1 11 3 0.05 0.18
 -1 11 4 12.17 0.75
 -1 11 5 1.9 0.11
 -1 11 6 0.87 0.09
 -1 11 7 2.05 0.1
 -1 11 8 0.02 0.07
 -1 11 9 0.22 0.12
 -1 12 0 0.35 0.09
 -1 12 1 7.18 0.12
 -1 12 2 0.02 0.09
 -1 12 3 0.08 0.19
 -1 12 4 0.08 0.15
 -1 12 5 2.96 0.12
 -1 12 6 0.11 0.17
 -1 12 7 0.1 0.16
 -1 12 8 0.19 0.12
 -1 12 9 0.41 0.1
 -1 13 0 0.43 0.09
 -1 13 1 3.44 0.22
 -1 13 2 0.06 0.13
 -1 13 3 13.9 0.7
 -1 13 4 0.11 0.18
 -1 13 5 2.95 0.13
 -1 13 6 0.41 0.13
 -1 13 7 0.11 0.16
 -1 13 8 0.09 0.15
 -1 14 0 0.2 0.13
 -1 14 1 0.63 0.09
 -1 14 2 0.36 0.1
 -1 14 3 0.32 0.13
 -1 14 4 0.35 0.13
 -1 14 5 0.2 0.16
 -1 14 6 0.15 0.17
 -1 14 7 0.1 0.16
 -1 15 0 0.13 0.16
 -1 15 1 0.11 0.17
 -1 15 2 4.13 0.11
 -1 15 3 0.04 0.16
 -1 15 4 3.03 0.14
 -1 15 5 0.06 0.18
 -1 16 0 0.68 0.1
 -1 16 1 0.07 0.16
 -1 16 2 0.6 0.11
 -1 16 3 0.18 0.13
 0 0 2 936.92 6.07
 0 0 4 16.15 0.45
 0 0 6 1.94 0.14
 0 0 8 1.52 0.16
 0 0 10 3.68 0.17
 0 0 12 3.32 0.19
 0 1 1 48.24 1.52
 0 1 2 424.53 10.62
 0 1 3 6.03 0.3
 0 1 4 1.47 0.07
 0 1 5 32.08 0.47
 0 1 6 19.65 0.31
 0 1 7 6.42 0.39
 0 1 8 0.89 0.12
 0 1 9 0.8 0.27
 0 1 10 3.73 0.12
 0 1 11 0.6 0.22
 0 1 12 0.17 0.17
 0 2 0 2.12 0.06
 0 2 1 1952.95 88.65
 0 2 2 40.35 1.83
 0 2 3 0.06 0.08
 0 2 4 56.58 1.61
 0 2 5 2.79 0.1
 0 2 6 0.05 0.15
 0 2 7 4.29 0.4
 0 2 8 7.13 0.92
 0 2 9 0.2 0.11
 0 2 10 0.93 0.12
 0 2 11 3.42 0.23
 0 2 12 0.05 0.16
 0 3 1 308.91 5.12
 0 3 2 11.23 0.47
 0 3 3 250.44 12.56
 0 3 4 6.17 0.45
 0 3 5 0.11 0.1
 0 3 6 2.15 0.19
 0 3 7 0.53 0.11
 0 3 8 0.28 0.18
 0 3 9 9.52 0.63
 0 3 10 0.16 0.13
 0 3 11 1.39 0.12
 0 3 12 0.19 0.16
 0 4 0 323.6 1.75
 0 4 1 17.75 0.49
 0 4 2 25.6 1.14
 0 4 3 75.1 3.68
 0 4 4 0.57 0.18
 0 4 5 14.75 0.91
 0 4 6 2.17 0.15
 0 4 7 12.42 1.34
 0 4 8 1 0.48
 0 4 9 6.87 0.37
 0 4 10 0.26 0.12
 0 4 11 0.07 0.14
 0 4 12 0.31 0.14
 0 5 1 32.48 0.9
 0 5 2 231.98 4.84
 0 5 3 14.76 0.91
 0 5 4 49.46 1.72
 0 5 5 4.83 0.37
 0 5 6 4.53 0.16
 0 5 7 2.64 0.15
 0 5 8 10.75 1.06
 0 5 9 0.03 0.13
 0 5 10 4.23 0.15
 0 5 11 0.12 0.17
 0 5 12 0.11 0.16
 0 6 0 43.66 0.81
 0 6 1 0.16 0.07
 0 6 2 3.3 0.11
 0 6 3 1.19 0.09
 0 6 4 37.31 1.27
 0 6 5 3.95 0.24
 0 6 6 0.88 0.11
 0 6 7 1.28 0.13
 0 6 8 9.45 0.36
 0 6 9 0.02 0.08
 0 6 10 0.35 0.19
 0 6 11 0.27 0.18
 0 6 12 0.07 0.2
 0 7 1 23.27 0.46
 0 7 2 26.15 0.67
 0 7 3 43.47 1.64
 0 7 4 4.81 0.45
 0 7 5 13.29 0.59
 0 7 6 23.01 1.31
 0 7 7 8.56 0.5
 0 7 8 1.23 0.14
 0 7 9 4.03 0.16
 0 7 10 0.18 0.15
 0 7 11 0.27 0.12
 0 8 0 25.85 0.52
 0 8 1 22.34 0.33
 0 8 2 1.17 0.08
 0 8 3 2.32 0.09
 0 8 4 7.64 0.44
 0 8 5 0.84 0.12
 0 8 6 1.61 0.13
 0 8 7 2.71 0.24
 0 8 8 0.03 0.13
 0 8 9 0.21 0.13
 0 8 10 0.4 0.28
 0 8 11 0.5 0.12
 0 9 1 5.5 0.12
 0 9 2 1.53 0.09
 0 9 3 0.12 0.15
 0 9 4 4.25 0.17
 0 9 5 22.43 1.35
 0 9 6 5.14 0.13
 0 9 7 8.21 0.16
 0 9 8 1.92 0.12
 0 9 9 0.03 0.11
 0 9 10 0.07 0.2
 0 10 0 26.08 0.6
 0 10 1 6.48 0.31
 0 10 2 8.01 0.22
 0 10 3 5.76 0.29
 0 10 4 0.28 0.11
 0 10 5 4.67 0.13
 0 10 6 0.22 0.15
 0 10 7 0.04 0.15
 0 10 8 0.08 0.18
 0 10 9 0.04 0.16
 0 10 10 0.67 0.13
 0 11 1 1.3 0.13
 0 11 2 0.87 0.11
 0 11 3 1.04 0.11
 0 11 4 3.98 0.1
 0 11 5 0.88 0.11
 0 11 6 6.64 0.33
 0 11 7 0.94 0.11
 0 11 8 0.22 0.15
 0 11 9 0.19 0.13
 0 12 0 1.38 0.17
 0 12 1 5.96 0.23
 0 12 2 1 0.08
 0 12 3 3.35 0.1
 0 12 4 6.01 0.11
 0 12 5 0.62 0.09
 0 12 6 0.14 0.19
 0 12 7 0.25 0.13
 0 12 8 0.67 0.13
 0 13 1 0.04 0.14
 0 13 2 3.95 0.1
 0 13 3 0.1 0.15
 0 13 4 0.22 0.11
 0 13 5 0.68 0.1
 0 13 6 0.34 0.13
 0 13 7 0.05 0.17
 0 13 8 0.04 0.15
 0 14 0 0.17 0.19
 0 14 1 0.62 0.24
 0 14 2 1.16 0.09
 0 14 3 2.93 0.1
 0 14 4 1.42 0.18
 0 14 5 0.46 0.11
 0 14 6 0.03 0.13
 0 14 7 0.31 0.12
 0 15 1 0.87 0.18
 0 15 2 0.2 0.13
 0 15 3 1.03 0.1
 0 15 4 0.16 0.13
 0 15 5 0.1 0.14
 0 16 0 0.4 0.19
 0 16 1 0.16 0.17
 0 16 2 0.76 0.13
 0 16 3 0.4 0.18
 1 0 1 0.19 0.06
 1 0 3 193.66 1.36
 1 0 5 0.72 0.12
 1 0 7 5.71 0.19
 1 0 9 2.18 0.16
 1 0 11 3.25 0.18
 1 1 1 748.21 28.34
 1 1 2 57.56 3.84
 1 1 3 0.03 0.09
 1 1 4 38.47 0.71
 1 1 5 62.12 0.93
 1 1 6 31.25 1
 1 1 7 3.88 0.13
 1 1 8 4.31 0.37
 1 1 9 0.08 0.2
 1 1 10 1.17 0.15
 1 1 11 0.47 0.12
 1 1 12 0.55 0.13
 1 2 1 182.55 6.23
 1 2 2 234.56 8.4
 1 2 3 235.75 10.14
 1 2 4 51.33 1.67
 1 2 5 12.5 0.21
 1 2 6 2.87 0.34
 1 2 7 1.1 0.14
 1 2 8 0.01 0.09
 1 2 9 0.07 0.19
 1 2 10 2.72 0.13
 1 2 11 0.26 0.21
 1 2 12 0.43 0.12
 1 3 1 2.88 0.14
 1 3 2 140.01 0.8
 1 3 3 5.97 0.15
 1 3 4 27.59 0.96
 1 3 5 9.34 0.35
 1 3 6 6.74 0.58
 1 3 7 9.86 0.68
 1 3 8 2.97 0.48
 1 3 9 4.18 0.29
 1 3 10 0.35 0.17
 1 3 11 0.76 0.12
 1 3 12 0.45 0.12
 1 4 1 54.03 1.13
 1 4 2 283.31 3.36
 1 4 3 110.37 2.72
 1 4 4 103.08 2.62
 1 4 5 8.61 0.62
 1 4 6 0.13 0.16
 1 4 7 0.04 0.12
 1 4 8 1.84 0.23
 1 4 9 0.65 0.11
 1 4 10 0.1 0.18
 1 4 11 0.41 0.27
 1 4 12 0.12 0.17
 1 5 1 111.72 1.37
 1 5 2 17.8 0.66
 1 5 3 1.07 0.09
 1 5 4 2.71 0.13
 1 5 5 5.2 0.34
 1 5 6 0.1 0.15
 1 5 7 2.66 0.45
 1 5 8 3.5 0.12
 1 5 9 3.13 0.1
 1 5 10 1.1 0.12
 1 5 11 0.08 0.19
 1 6 1 36.85 1.78
 1 6 2 52.95 2.12
 1 6 3 123.29 4.44
 1 6 4 24.34 2.01
 1 6 5 4.89 0.29
 1 6 6 7.46 0.58
 1 6 7 3.16 0.33
 1 6 8 0.96 0.11
 1 6 9 0.22 0.13
 1 6 10 0.27 0.17
 1 6 11 0.02 0.09
 1 7 1 43.35 2.32
 1 7 2 5.93 0.44
 1 7 3 0.39 0.1
 1 7 4 0.21 0.11
 1 7 5 15.09 0.43
 1 7 6 0.56 0.15
 1 7 7 0.25 0.15
 1 7 8 1.58 0.12
 1 7 9 0.68 0.16
 1 7 10 0.09 0.23
 1 7 11 0.1 0.17
 1 8 1 40.59 2.15
 1 8 2 19.69 1.61
 1 8 3 10.66 0.8
 1 8 4 7.21 0.36
 1 8 5 10.7 0.51
 1 8 6 1.2 0.13
 1 8 7 4.79 0.33
 1 8 8 0.18 0.13
 1 8 9 0.03 0.11
 1 8 10 0.39 0.12
 1 9 1 0.15 0.16
 1 9 2 6.88 0.44
 1 9 3 0.07 0.2
 1 9 4 12.26 0.43
 1 9 5 0.15 0.17
 1 9 6 6.78 0.14
 1 9 7 0.11 0.16
 1 9 8 0.1 0.17
 1 9 9 0.14 0.17
 1 9 10 0.01 0.05
 1 10 1 0.72 0.11
 1 10 2 1.44 0.19
 1 10 3 0.21 0.14
 1 10 4 0.83 0.13
 1 10 5 0.44 0.11
 1 10 6 4.81 0.2
 1 10 7 0.35 0.23
 1 10 8 0.7 0.19
 1 10 9 0.26 0.12
 1 11 1 7.81 0.53
 1 11 2 0.45 0.13
 1 11 3 0.58 0.1
 1 11 4 0.18 0.12
 1 11 5 5.45 0.14
 1 11 6 0.17 0.13
 1 11 7 0.37 0.12
 1 11 8 1.23 0.15
 1 11 9 0.1 0.17
 1 12 1 0.38 0.11
 1 12 2 1.53 0.11
 1 12 3 1.31 0.15
 1 12 4 1.04 0.1
 1 12 5 0.3 0.2
 1 12 6 0.08 0.17
 1 12 7 1.25 0.12
 1 12 8 0.15 0.18
 1 13 1 0.43 0.11
 1 13 2 0.14 0.17
 1 13 3 0.05 0.17
 1 13 4 0.52 0.12
 1 13 5 0.08 0.22
 1 13 6 0.2 0.16
 1 13 7 0.82 0.15
 1 14 1 0.09 0.18
 1 14 2 1.45 0.11
 1 14 3 0.96 0.12
 1 14 4 0.6 0.17
 1 14 5 0.11 0.18
 1 14 6 0.36 0.25
 1 15 1 0.22 0.11
 1 15 2 0.23 0.13
 1 15 3 0.06 0.18
 1 15 4 0.12 0.17
 1 15 5 0.09 0.18
 1 16 1 0.14 0.19
 1 16 2 0.08 0.21
 1 16 3 0.5 0.21
 2 0 2 12.13 0.28
 2 0 4 94.16 1.14
 2 0 6 92.51 1.37
 2 0 8 4.81 0.22
 2 0 10 0 0.11
 2 0 12 0.18 0.18
 2 1 2 32.28 2.56
 2 1 3 12.44 0.54
 2 1 4 70.99 2.71
 2 1 5 8.78 0.14
 2 1 6 0.68 0.1
 2 1 7 0.37 0.12
 2 1 8 1.52 0.13
 2 1 9 0.76 0.23
 2 1 10 0.15 0.14
 2 1 11 0.49 0.13
 2 1 12 0.24 0.19
 2 2 2 95.96 4.32
 2 2 3 2.16 0.08
 2 2 4 7.84 0.51
 2 2 5 83.76 4.51
 2 2 6 0.16 0.16
 2 2 7 19.88 1.65
 2 2 8 0.54 0.14
 2 2 9 1.55 1.03
 2 2 10 0.27 0.17
 2 2 11 0.14 0.2
 2 3 2 1.64 0.08
 2 3 3 126.72 7.14
 2 3 4 0.11 0.15
 2 3 5 15.26 0.88
 2 3 6 2.01 0.11
 2 3 7 6.65 0.23
 2 3 8 1.94 0.11
 2 3 9 2.12 0.57
 2 3 10 0.6 0.12
 2 3 11 0.1 0.19
 2 4 2 4.72 0.17
 2 4 3 48.33 0.62
 2 4 4 8.88 0.33
 2 4 5 0.13 0.15
 2 4 6 11.14 0.86
 2 4 7 0.14 0.17
 2 4 8 0.6 0.11
 2 4 9 0.86 0.14
 2 4 10 0.02 0.11
 2 4 11 0.12 0.18
 2 5 2 53.25 2.52
 2 5 3 5.44 0.11
 2 5 4 36.35 1.92
 2 5 5 4.76 3.45
 2 5 6 1.2 0.12
 2 5 7 2.26 0.45
 2 5 8 7.02 0.25
 2 5 9 0.56 0.09
 2 5 10 0.7 0.1
 2 5 11 0.11 0.16
 2 6 2 53.45 0.66
 2 6 3 0.09 0.15
 2 6 4 0.63 0.1
 2 6 5 0.03 0.13
 2 6 6 3.21 0.27
 2 6 7 0.18 0.15
 2 6 8 0.18 0.15
 2 6 9 0.2 0.14
 2 6 10 0.32 0.13
 2 6 11 0.19 0.17
 2 7 2 1.95 0.19
 2 7 3 22.27 0.78
 2 7 4 7.17 0.15
 2 7 5 0.79 0.2
 2 7 6 0.13 0.19
 2 7 7 2.84 0.2
 2 7 8 0.46 0.11
 2 7 9 1.55 0.16
 2 7 10 0.22 0.14
 2 8 2 1.18 0.23
 2 8 3 0.56 0.11
 2 8 4 1.3 0.12
 2 8 5 6.19 0.31
 2 8 6 2.83 0.12
 2 8 7 1.53 0.11
 2 8 8 0.13 0.19
 2 8 9 0.19 0.18
 2 8 10 0.41 0.13
 2 9 2 5.97 0.14
 2 9 3 1.19 0.12
 2 9 4 0.52 0.12
 2 9 5 2.03 0.11
 2 9 6 0.11 0.16
 2 9 7 0.13 0.18
 2 9 8 0.24 0.16
 2 9 9 0.09 0.19
 2 10 2 0.86 0.12
 2 10 3 1.01 0.13
 2 10 4 4.93 0.13
 2 10 5 1.9 0.12
 2 10 6 3.58 0.13
 2 10 7 0.3 0.13
 2 10 8 0.29 0.14
 2 10 9 0.44 0.13
 2 11 2 0.75 0.1
 2 11 3 0.17 0.13
 2 11 4 1.46 0.16
 2 11 5 0.1 0.17
 2 11 6 0.18 0.18
 2 11 7 0.38 0.13
 2 11 8 0.02 0.11
 2 12 2 5.14 0.13
 2 12 3 4 0.13
 2 12 4 0.24 0.12
 2 12 5 2.06 0.2
 2 12 6 0.21 0.18
 2 12 7 0.36 0.13
 2 12 8 0.28 0.17
 2 13 2 0.1 0.16
 2 13 3 0.15 0.16
 2 13 4 0.75 0.12
 2 13 5 0.04 0.16
 2 13 6 0.26 0.13
 2 13 7 0.04 0.14
 2 14 2 2.2 0.13
 2 14 3 1.83 0.13
 2 14 4 0.71 0.13
 2 14 5 0.04 0.15
 2 15 2 0.16 0.15
 2 15 3 0.45 0.11
 2 15 4 0.05 0.17
 3 0 3 13.17 0.37
 3 0 5 32.79 0.87
 3 0 7 0.29 0.2
 3 0 9 0.42 0.18
 3 0 11 0.05 0.2
 3 1 3 0.44 0.09
 3 1 4 13.77 0.65
 3 1 5 9.72 0.29
 3 1 6 7.53 0.15
 3 1 7 5.94 0.16
 3 1 8 0.1 0.19
 3 1 9 0.09 0.16
 3 1 10 0.69 0.12
 3 1 11 0.44 0.23
 3 2 3 1.3 0.26
 3 2 4 20.84 0.56
 3 2 5 0.05 0.17
 3 2 6 3.6 0.19
 3 2 7 2.9 0.14
 3 2 8 0.84 0.11
 3 2 9 1.61 0.14
 3 2 10 0.3 0.23
 3 2 11 0.01 0.05
 3 3 3 28.43 1.51
 3 3 4 0.81 0.17
 3 3 5 6.34 0.26
 3 3 6 10.01 0.64
 3 3 7 0.08 0.14
 3 3 8 1.76 0.21
 3 3 9 0.31 0.12
 3 3 10 0.04 0.16
 3 3 11 0.19 0.15
 3 4 3 0.16 0.14
 3 4 4 0.17 0.12
 3 4 5 0.26 0.11
 3 4 6 1.5 0.18
 3 4 7 1.43 0.12
 3 4 8 5.28 0.17
 3 4 9 0.93 0.12
 3 4 10 0.66 0.13
 3 4 11 0.02 0.09
 3 5 3 11.87 0.31
 3 5 4 8.22 0.73
 3 5 5 1.2 0.12
 3 5 6 0.15 0.18
 3 5 7 4.33 0.2
 3 5 8 0.2 0.17
 3 5 9 0.33 0.13
 3 5 10 0.05 0.17
 3 6 3 0.18 0.12
 3 6 4 4.22 0.3
 3 6 5 0.72 0.13
 3 6 6 4.95 0.26
 3 6 7 2.12 0.14
 3 6 8 1.74 0.24
 3 6 9 1.82 0.13
 3 6 10 0.21 0.15
 3 7 3 6.42 0.3
 3 7 4 0.14 0.19
 3 7 5 0.39 0.12
 3 7 6 1.7 0.11
 3 7 7 0.96 0.15
 3 7 8 0.71 0.21
 3 7 9 0.13 0.2
 3 7 10 0.21 0.17
 3 8 3 2.53 0.13
 3 8 4 2.11 0.13
 3 8 5 9.62 0.23
 3 8 6 0.22 0.11
 3 8 7 2.64 0.23
 3 8 8 0.54 0.18
 3 8 9 0.47 0.16
 3 9 3 1.74 0.14
 3 9 4 0.19 0.16
 3 9 5 0.8 0.11
 3 9 6 1.48 0.12
 3 9 7 0.16 0.15
 3 9 8 0.05 0.16
 3 9 9 0.23 0.13
 3 10 3 0.77 0.11
 3 10 4 4.98 0.13
 3 10 5 1.28 0.12
 3 10 6 2.73 0.23
 3 10 7 0.2 0.15
 3 10 8 0.08 0.22
 3 11 3 0.04 0.13
 3 11 4 3.11 0.25
 3 11 5 0.35 0.12
 3 11 6 0.12 0.2
 3 11 7 0.19 0.14
 3 12 3 0.21 0.13
 3 12 4 0.32 0.12
 3 12 5 1.04 0.12
 3 12 6 0.23 0.16
 3 12 7 0.02 0.08
 3 13 3 5.27 0.15
 3 13 4 0.05 0.17
 3 13 5 0.21 0.15
 3 13 6 0.12 0.18
 3 14 3 0.07 0.21
 3 14 4 0.15 0.14
 3 15 3 0.06 0.19
 4 0 4 4.33 0.18
 4 0 6 0.64 0.19
 4 0 8 0.16 0.19
 4 0 10 0.81 0.18
 4 1 4 0.05 0.17
 4 1 5 3.13 0.31
 4 1 6 1 0.13
 4 1 7 0.14 0.18
 4 1 8 0.47 0.11
 4 1 9 0.43 0.12
 4 1 10 0.55 0.13
 4 2 4 0.95 0.11
 4 2 5 1.47 0.12
 4 2 6 1.19 0.24
 4 2 7 0.12 0.18
 4 2 8 1.53 0.12
 4 2 9 0.27 0.14
 4 2 10 0.44 0.32
 4 3 4 1.57 0.31
 4 3 5 0.04 0.17
 4 3 6 0.07 0.19
 4 3 7 0.16 0.16
 4 3 8 0.11 0.18
 4 3 9 0.94 0.12
 4 3 10 0.06 0.2
 4 4 4 0.12 0.19
 4 4 5 0.11 0.17
 4 4 6 0.22 0.15
 4 4 7 3.97 0.13
 4 4 8 0.03 0.11
 4 4 9 0.87 0.12
 4 4 10 0.08 0.23
 4 5 4 8.95 0.75
 4 5 5 1.23 0.37
 4 5 6 0.68 0.12
 4 5 7 0.42 0.11
 4 5 8 0.71 0.12
 4 5 9 0.11 0.19
 4 6 4 1.85 0.13
 4 6 5 0.72 0.13
 4 6 6 1.27 0.11
 4 6 7 0.32 0.12
 4 6 8 1.79 0.13
 4 6 9 0.12 0.2
 4 7 4 2.25 0.11
 4 7 5 2.48 0.23
 4 7 6 3.01 0.34
 4 7 7 0.74 0.12
 4 7 8 0.08 0.23
 4 7 9 0.11 0.22
 4 8 4 2.61 0.12
 4 8 5 0.13 0.14
 4 8 6 0.36 0.13
 4 8 7 0.38 0.13
 4 8 8 0.03 0.13
 4 9 4 1.55 0.18
 4 9 5 4.4 0.14
 4 9 6 0.8 0.19
 4 9 7 0.68 0.13
 4 9 8 0.1 0.21
 4 10 4 0.08 0.21
 4 10 5 0.78 0.25
 4 10 6 0.07 0.21
 4 10 7 0.05 0.18
 4 11 4 1.2 0.15
 4 11 5 0.38 0.25
 4 11 6 1.04 0.25
 4 12 4 0.78 0.12
 4 12 5 0.13 0.18
 4 13 4 0.11 0.2
 5 0 5 0.19 0.17
 5 0 7 0.11 0.22
 5 0 9 0.4 0.19
 5 1 5 3.73 0.21
 5 1 6 2.65 0.24
 5 1 7 0.21 0.13
 5 1 8 0.35 0.13
 5 1 9 0.11 0.18
 5 2 5 0.09 0.21
 5 2 6 0.17 0.16
 5 2 7 0.25 0.13
 5 2 8 0.12 0.2
 5 2 9 0.22 0.16
 5 3 5 2.26 0.19
 5 3 6 0.28 0.14
 5 3 7 0.97 0.17
 5 3 8 0.2 0.15
 5 3 9 0.32 0.14
 5 4 5 0.56 0.11
 5 4 6 0.44 0.12
 5 4 7 0.2 0.14
 5 4 8 0.18 0.2
 5 4 9 0.08 0.22
 5 5 5 0.05 0.15
 5 5 6 0.07 0.2
 5 5 7 0.39 0.13
 5 5 8 0.36 0.13
 5 6 5 0.15 0.15
 5 6 6 0.29 0.13
 5 6 7 0.47 0.17
 5 6 8 0.18 0.2
 5 7 5 0.91 0.19
 5 7 6 0.07 0.2
 5 7 7 0.09 0.19
 5 7 8 0.28 0.14
 5 8 5 0.56 0.12
 5 8 6 0.19 0.19
 5 8 7 0.16 0.2
 5 9 5 0.04 0.15
 5 9 6 0.67 0.13
 5 9 7 0.06 0.15
 5 10 5 0.17 0.2
 5 10 6 0.38 0.16
 5 11 5 0.69 0.16
 6 0 6 2.29 0.18
 6 0 8 0.05 0.21
 6 1 6 0.22 0.13
 6 1 7 0.17 0.15
 6 1 8 0.05 0.17
 6 2 6 0.01 0.05
 6 2 7 0.49 0.13
 6 2 8 0.22 0.15
 6 3 6 0.41 0.13
 6 3 7 0.36 0.13
 6 4 6 0.51 0.13
 6 4 7 0.04 0.13
 6 5 6 0.28 0.14
 6 5 7 0.09 0.24
 6 6 6 0.17 0.2
 6 6 7 0.26 0.17
 6 7 6 0.03 0.13
 6 8 6 0.17 0.17

_iucr_refine_fcf_details
;
data_olex2socket
_computing_structure_refinement   'olex2.refine 1.5-dev (Bourhis et al., 2015)'
_shelx_refln_list_code            4
loop_
  _space_group_symop_id
  _space_group_symop_operation_xyz
  1  x,y,z
  2  -x+1/2,y+1/2,-z+1/2
  3  -x,-y,-z
  4  x-1/2,-y-1/2,z-1/2

_space_group_crystal_system       monoclinic
_space_group_IT_number            14
_space_group_name_H-M_alt         'P 1 21/n 1'
_space_group_name_Hall            '-P 2ybc (x-z,y,z)'
_symmetry_space_group_name_H-M    'P 1 21/n 1'
_symmetry_space_group_name_Hall   '-P 2ybc (x-z,y,z)'
_symmetry_Int_Tables_number       14
_cell_length_a                    4.633(5)
_cell_length_b                    8.400(1)
_cell_length_c                    6.577(3)
_cell_angle_alpha                 90
_cell_angle_beta                  100.37(6)
_cell_angle_gamma                 90
_cell_volume                      251.8(3)
loop_
  _refln_index_h
  _refln_index_k
  _refln_index_l
  _refln_F_squared_calc
  _refln_F_squared_meas
  _refln_F_squared_sigma
  _refln_F_squared_weight
  _refln_observed_status
-9 0 1 0.107 0.153 0.234 56.631 o
-9 0 3 0.056 0.031 0.173 104.104 o
-9 0 5 0.146 0.255 0.204 73.826 o
-9 1 0 0.004 0.082 0.194 83.776 o
-9 1 1 0.092 0.071 0.214 68.099 o
-9 1 2 0.016 0.031 0.143 154.078 o
-9 1 3 0.000 0.194 0.163 116.885 o
-9 1 4 0.085 0.204 0.194 82.394 o
-9 2 0 0.004 0.092 0.234 57.238 o
-9 2 1 0.013 0.041 0.153 134.269 o
-9 2 2 0.054 0.132 0.204 75.043 o
-9 2 3 0.020 0.173 0.204 75.156 o
-9 2 4 0.041 0.092 0.204 75.313 o
-9 3 1 0.002 0.071 0.224 62.603 o
-9 3 2 0.017 0.010 0.071 608.985 o
-9 3 3 0.082 0.061 0.204 75.103 o
-8 0 -4 0.230 0.122 0.255 47.683 o
-8 0 -2 0.000 0.071 0.265 44.868 o
-8 0 0 2.448 2.007 0.183 57.494 o
-8 0 2 3.426 3.475 0.204 40.432 o
-8 0 4 0.619 0.438 0.173 92.832 o
-8 0 6 0.668 0.652 0.183 82.067 o
-8 0 8 1.161 1.325 0.204 61.679 o
-8 1 -4 0.000 0.173 0.204 75.311 o
-8 1 -3 0.005 0.132 0.204 75.433 o
-8 1 -2 0.248 0.163 0.183 89.874 o
-8 1 -1 0.000 0.132 0.194 83.559 o
-8 1 0 0.070 0.020 0.112 244.448 o
-8 1 1 0.253 0.204 0.143 143.805 o
-8 1 2 0.630 0.581 0.183 82.923 o
-8 1 3 0.444 0.479 0.357 24.207 o
-8 1 4 0.336 0.448 0.214 65.250 o
-8 1 5 0.001 0.143 0.204 75.422 o
-8 1 6 0.102 0.143 0.173 102.572 o
-8 1 7 0.077 0.132 0.204 74.866 o
-8 1 8 0.004 0.051 0.194 83.920 o
-8 2 -4 0.004 0.204 0.204 75.161 o
-8 2 -3 0.079 0.183 0.163 115.470 o
-8 2 -2 0.000 0.061 0.204 75.753 o
-8 2 -1 0.500 0.448 0.132 150.642 o
-8 2 0 0.061 0.020 0.102 295.126 o
-8 2 1 2.811 2.578 0.703 6.058 o
-8 2 2 0.007 0.112 0.204 75.499 o
-8 2 3 1.164 1.070 0.346 24.486 o
-8 2 4 0.611 0.642 0.122 162.409 o
-8 2 5 0.280 0.357 0.214 65.920 o
-8 2 6 0.271 0.224 0.143 142.926 o
-8 2 7 0.848 0.988 0.132 129.892 o
-8 2 8 0.024 0.010 0.051 1160.300 o
-8 3 -3 0.312 0.377 0.245 50.827 o
-8 3 -2 0.059 0.153 0.214 68.050 o
-8 3 -1 1.074 0.927 0.143 111.730 o
-8 3 0 0.134 0.336 0.132 167.017 o
-8 3 1 0.006 0.061 0.204 75.710 o
-8 3 2 0.062 0.163 0.194 82.809 o
-8 3 3 0.650 0.856 0.336 26.670 o
-8 3 4 0.000 0.245 0.183 92.350 o
-8 3 5 0.019 0.041 0.173 104.589 o
-8 3 6 0.000 0.143 0.173 104.100 o
-8 3 7 0.001 0.051 0.183 93.505 o
-8 3 8 0.002 0.122 0.224 62.467 o
-8 4 -3 0.003 0.092 0.234 57.243 o
-8 4 -2 0.045 0.071 0.214 68.405 o
-8 4 -1 0.061 0.102 0.214 68.205 o
-8 4 0 0.658 0.662 0.204 68.135 o
-8 4 1 0.161 0.092 0.194 82.198 o
-8 4 2 0.636 0.662 0.122 160.859 o
-8 4 3 0.379 0.285 0.132 158.256 o
-8 4 4 0.134 0.102 0.204 74.534 o
-8 4 5 1.152 1.151 0.234 49.335 o
-8 4 6 0.227 0.255 0.143 143.804 o
-8 4 7 0.008 0.041 0.163 118.194 o
-8 5 -3 0.000 0.112 0.194 83.659 o
-8 5 -2 0.976 0.754 0.194 71.256 o
-8 5 -1 0.073 0.102 0.163 116.363 o
-8 5 0 0.681 0.652 0.326 28.382 o
-8 5 1 0.005 0.163 0.204 75.314 o
-8 5 2 0.056 0.102 0.245 52.364 o
-8 5 3 0.177 0.071 0.214 67.542 o
-8 5 4 0.173 0.367 0.132 164.780 o
-8 5 5 0.003 0.061 0.204 75.734 o
-8 5 6 0.011 0.163 0.204 75.265 o
-8 5 7 0.166 0.224 0.194 81.507 o
-8 6 -2 0.001 0.183 0.163 116.973 o
-8 6 -1 0.096 0.020 0.122 204.770 o
-8 6 0 0.317 0.245 0.183 88.558 o
-8 6 1 0.034 0.163 0.214 68.176 o
-8 6 2 0.036 0.224 0.194 82.774 o
-8 6 3 0.017 0.245 0.194 82.854 o
-8 6 4 0.581 0.601 0.143 128.465 o
-8 6 5 0.080 0.234 0.153 130.240 o
-8 6 6 0.139 0.102 0.214 67.689 o
-8 7 -1 0.493 0.479 0.132 150.361 o
-8 7 0 0.011 0.061 0.204 75.671 o
-8 7 1 0.061 0.224 0.194 82.527 o
-8 7 2 0.489 0.622 0.132 147.918 o
-8 7 3 0.030 0.204 0.153 131.829 o
-8 7 4 0.123 0.102 0.183 91.728 o
-8 7 5 0.035 0.071 0.224 62.424 o
-8 8 1 0.316 0.285 0.143 140.643 o
-8 8 2 0.026 0.132 0.204 75.269 o
-8 8 3 0.000 0.132 0.204 75.472 o
-7 0 -5 0.613 0.581 0.183 83.114 o
-7 0 -3 0.783 0.611 0.163 98.903 o
-7 0 -1 0.094 0.122 0.214 67.920 o
-7 0 1 0.059 0.092 0.265 44.677 o
-7 0 3 4.172 4.443 0.194 36.310 o
-7 0 5 0.863 0.927 0.173 86.069 o
-7 0 7 0.634 0.642 0.194 74.988 o
-7 0 9 0.002 0.122 0.245 52.533 o
-7 1 -6 0.019 0.051 0.183 93.293 o
-7 1 -5 0.160 0.234 0.255 47.727 o
-7 1 -4 0.105 0.173 0.183 91.525 o
-7 1 -3 0.002 0.102 0.163 117.731 o
-7 1 -2 0.611 0.560 0.122 164.230 o
-7 1 -1 0.628 0.520 0.122 164.381 o
-7 1 0 4.452 3.995 0.907 3.618 o
-7 1 1 6.083 5.696 1.121 2.360 o
-7 1 2 6.063 5.920 0.937 3.283 o
-7 1 3 2.162 2.140 0.224 45.232 o
-7 1 4 0.543 0.560 0.163 103.511 o
-7 1 5 0.714 0.693 0.122 156.826 o
-7 1 6 0.211 0.224 0.122 192.463 o
-7 1 7 0.422 0.530 0.122 173.743 o
-7 1 8 0.087 0.092 0.204 74.944 o
-7 1 9 0.038 0.010 0.071 598.539 o
-7 1 10 0.124 0.204 0.173 101.780 o
-7 2 -6 0.035 0.163 0.163 116.514 o
-7 2 -5 0.036 0.316 0.245 52.031 o
-7 2 -4 0.522 0.438 0.183 85.000 o
-7 2 -3 0.120 0.082 0.183 91.894 o
-7 2 -2 0.015 0.051 0.173 104.572 o
-7 2 -1 0.691 0.479 0.183 82.803 o
-7 2 0 0.108 0.031 0.112 240.881 o
-7 2 1 0.019 0.132 0.194 83.378 o
-7 2 2 1.629 1.671 0.234 45.870 o
-7 2 3 1.882 1.895 0.377 19.897 o
-7 2 4 3.338 3.424 0.224 36.840 o
-7 2 5 1.474 1.457 0.122 116.688 o
-7 2 6 0.010 0.071 0.204 75.633 o
-7 2 7 0.027 0.061 0.194 83.650 o
-7 2 8 0.092 0.102 0.173 103.025 o
-7 2 9 0.018 0.061 0.204 75.610 o
-7 2 10 0.315 0.275 0.163 110.202 o
-7 3 -6 0.297 0.214 0.153 125.283 o
-7 3 -5 0.008 0.031 0.132 178.856 o
-7 3 -4 0.016 0.112 0.214 68.460 o
-7 3 -3 0.464 0.428 0.143 134.198 o
-7 3 -2 0.128 0.173 0.132 170.628 o
-7 3 -1 1.989 1.824 0.122 98.740 o
-7 3 0 0.871 0.907 0.214 60.190 o
-7 3 1 2.784 2.649 0.479 12.324 o
-7 3 2 2.475 2.374 0.428 15.312 o
-7 3 3 1.485 1.223 0.122 119.808 o
-7 3 4 0.242 0.377 0.214 66.109 o
-7 3 5 0.307 0.418 0.194 79.202 o
-7 3 6 1.540 1.579 0.132 103.488 o
-7 3 7 0.004 0.102 0.173 104.349 o
-7 3 8 0.032 0.153 0.204 75.141 o
-7 3 9 0.293 0.285 0.194 79.983 o
-7 4 -6 0.084 0.112 0.306 33.556 o
-7 4 -5 0.002 0.132 0.204 75.458 o
-7 4 -4 0.026 0.061 0.194 83.660 o
-7 4 -3 0.006 0.041 0.163 118.244 o
-7 4 -2 0.669 0.581 0.194 74.942 o
-7 4 -1 0.098 0.204 0.153 130.171 o
-7 4 0 0.936 0.703 0.122 147.530 o
-7 4 1 0.231 0.428 0.122 185.908 o
-7 4 2 1.179 1.213 0.122 129.571 o
-7 4 3 2.653 2.782 0.204 46.608 o
-7 4 4 5.089 5.360 0.805 4.422 o
-7 4 5 1.469 1.498 0.194 63.528 o
-7 4 6 0.589 0.611 0.122 164.057 o
-7 4 7 0.219 0.102 0.204 73.852 o
-7 4 8 0.005 0.071 0.214 68.666 o
-7 4 9 0.336 0.387 0.132 157.961 o
-7 5 -5 0.171 0.051 0.183 91.463 o
-7 5 -4 0.076 0.102 0.183 92.293 o
-7 5 -3 0.075 0.041 0.153 132.740 o
-7 5 -2 0.810 0.785 0.255 44.546 o
-7 5 -1 0.038 0.132 0.183 92.573 o
-7 5 0 0.372 0.377 0.122 179.957 o
-7 5 1 0.556 0.397 0.132 149.550 o
-7 5 2 0.014 0.132 0.194 83.428 o
-7 5 3 0.002 0.061 0.183 93.435 o
-7 5 4 0.398 0.377 0.122 178.657 o
-7 5 5 1.284 1.518 0.132 110.384 o
-7 5 6 0.514 0.520 0.143 131.477 o
-7 5 7 0.080 0.255 0.143 148.405 o
-7 5 8 0.060 0.408 0.285 38.221 o
-7 5 9 0.300 0.346 0.132 160.132 o
-7 6 -5 0.000 0.102 0.255 48.471 o
-7 6 -4 0.347 0.204 0.163 110.263 o
-7 6 -3 0.019 0.010 0.092 370.721 o
-7 6 -2 0.210 0.112 0.183 90.627 o
-7 6 -1 0.767 0.601 0.163 99.270 o
-7 6 0 0.041 0.173 0.183 92.284 o
-7 6 1 0.000 0.132 0.183 93.026 o
-7 6 2 0.871 0.907 0.336 26.364 o
-7 6 3 3.341 3.434 0.143 56.513 o
-7 6 4 1.363 1.498 0.132 108.668 o
-7 6 5 1.576 1.651 0.132 101.839 o
-7 6 6 1.400 1.529 0.224 50.833 o
-7 6 7 0.033 0.173 0.163 116.446 o
-7 6 8 1.172 1.090 0.132 118.964 o
-7 7 -4 0.020 0.377 0.285 38.338 o
-7 7 -3 0.196 0.153 0.214 67.149 o
-7 7 -2 0.007 0.102 0.183 93.129 o
-7 7 -1 0.059 0.153 0.163 116.144 o
-7 7 0 0.045 0.112 0.214 68.276 o
-7 7 1 0.645 0.642 0.122 160.883 o
-7 7 2 0.027 0.132 0.183 92.701 o
-7 7 3 0.172 0.122 0.183 91.024 o
-7 7 4 0.243 0.245 0.183 89.444 o
-7 7 5 0.685 0.601 0.122 160.038 o
-7 7 6 0.111 0.214 0.183 91.202 o
-7 7 7 0.173 0.041 0.163 115.046 o
-7 7 8 0.068 0.204 0.194 82.554 o
-7 8 -3 0.454 0.540 0.132 150.637 o
-7 8 -2 0.013 0.183 0.163 116.726 o
-7 8 -1 0.002 0.041 0.132 178.873 o
-7 8 0 0.071 0.020 0.112 244.348 o
-7 8 1 0.349 0.357 0.132 158.064 o
-7 8 2 0.571 0.673 0.173 91.854 o
-7 8 3 0.239 0.234 0.214 66.599 o
-7 8 4 0.978 0.866 0.122 142.785 o
-7 8 5 0.679 0.825 0.122 155.516 o
-7 8 6 0.010 0.183 0.153 132.591 o
-7 8 7 1.746 1.895 0.132 95.509 o
-7 9 -2 0.041 0.143 0.214 68.202 o
-7 9 -1 0.162 0.153 0.214 67.374 o
-7 9 0 0.435 0.581 0.306 32.587 o
-7 9 1 0.058 0.143 0.173 103.239 o
-7 9 2 1.078 0.856 0.122 139.289 o
-7 9 3 0.001 0.061 0.204 75.743 o
-7 9 4 0.029 0.102 0.245 52.468 o
-7 9 5 0.005 0.031 0.112 249.521 o
-7 9 6 0.479 0.479 0.132 150.861 o
-7 10 -1 0.008 0.132 0.204 75.406 o
-7 10 0 0.232 0.163 0.204 73.509 o
-7 10 1 0.077 0.143 0.204 74.826 o
-7 10 2 0.032 0.194 0.204 74.980 o
-7 10 3 0.169 0.296 0.194 81.131 o
-7 10 4 0.001 0.020 0.122 210.428 o
-7 10 5 0.010 0.061 0.183 93.329 o
-6 0 -4 5.331 4.086 0.194 32.084 o
-6 0 -2 1.210 0.836 0.194 68.737 o
-6 0 0 2.536 2.344 0.214 45.652 o
-6 0 2 8.954 8.896 0.245 14.771 o
-6 0 4 0.529 0.581 0.183 84.088 o
-6 0 6 20.325 19.799 0.540 3.466 o
-6 0 8 7.799 7.785 0.214 18.640 o
-6 0 10 0.254 0.224 0.204 73.093 o
-6 1 -5 0.788 0.560 0.132 138.639 o
-6 1 -4 2.017 1.681 0.112 107.880 o
-6 1 -3 1.613 1.131 0.112 128.850 o
-6 1 -2 1.502 1.009 0.102 148.960 o
-6 1 -1 0.007 0.010 0.092 372.947 o
-6 1 0 0.726 0.693 0.183 81.173 o
-6 1 1 1.106 1.253 0.214 57.527 o
-6 1 2 0.135 0.245 0.224 61.405 o
-6 1 3 0.113 0.112 0.214 67.829 o
-6 1 4 8.280 9.406 0.499 7.982 o
-6 1 5 0.542 0.703 0.194 75.577 o
-6 1 6 1.224 1.223 0.143 104.976 o
-6 1 7 0.163 0.285 0.122 193.421 o
-6 1 8 0.970 0.836 0.122 143.673 o
-6 1 9 0.090 0.224 0.132 171.138 o
-6 1 10 0.051 0.041 0.153 133.335 o
-6 1 11 0.167 0.255 0.122 194.024 o
-6 2 -5 3.209 2.660 0.438 14.181 o
-6 2 -4 0.205 0.102 0.204 73.968 o
-6 2 -3 1.880 1.508 0.214 51.862 o
-6 2 -2 3.377 2.823 0.122 65.944 o
-6 2 -1 0.378 0.418 0.275 40.253 o
-6 2 0 2.025 2.109 0.265 35.645 o
-6 2 1 4.198 4.300 0.214 33.320 o
-6 2 2 0.405 0.397 0.132 155.128 o
-6 2 3 1.640 1.814 0.132 98.628 o
-6 2 4 0.291 0.285 0.143 141.413 o
-6 2 5 7.766 7.867 0.622 6.189 o
-6 2 6 0.207 0.194 0.122 193.490 o
-6 2 7 11.649 11.678 0.408 7.791 o
-6 2 8 0.051 0.204 0.153 131.330 o
-6 2 9 1.160 0.958 0.122 134.544 o
-6 2 10 0.637 0.673 0.153 112.448 o
-6 2 11 0.073 0.224 0.173 102.402 o
-6 3 -5 0.068 0.071 0.143 151.730 o
-6 3 -4 0.318 0.255 0.132 161.242 o
-6 3 -3 2.644 2.548 0.122 78.788 o
-6 3 -2 0.084 0.031 0.143 151.847 o
-6 3 -1 0.339 0.143 0.214 66.243 o
-6 3 0 0.000 0.112 0.183 93.148 o
-6 3 1 0.102 0.234 0.132 170.440 o
-6 3 2 0.045 0.092 0.194 83.323 o
-6 3 3 12.579 15.214 0.275 8.291 o
-6 3 4 0.202 0.469 0.194 79.972 o
-6 3 5 13.251 13.461 0.703 3.975 o
-6 3 6 0.111 0.163 0.173 102.290 o
-6 3 7 0.001 0.051 0.173 104.790 o
-6 3 8 0.032 0.092 0.173 104.014 o
-6 3 9 0.954 0.846 0.122 144.088 o
-6 3 10 0.154 0.143 0.214 67.459 o
-6 3 11 0.008 0.163 0.183 92.746 o
-6 4 -5 0.021 0.092 0.153 133.444 o
-6 4 -4 0.644 0.550 0.122 162.985 o
-6 4 -3 2.202 2.171 0.122 90.415 o
-6 4 -2 0.036 0.020 0.112 247.317 o
-6 4 -1 7.188 6.410 0.173 23.802 o
-6 4 0 0.168 0.255 0.183 90.283 o
-6 4 1 0.057 0.163 0.194 82.865 o
-6 4 2 0.772 1.029 0.132 131.607 o
-6 4 3 2.080 2.252 0.275 33.219 o
-6 4 4 0.545 0.693 0.112 187.474 o
-6 4 5 0.125 0.173 0.163 114.709 o
-6 4 6 3.916 3.872 0.489 11.161 o
-6 4 7 0.396 0.306 0.122 180.545 o
-6 4 8 1.035 1.080 0.112 152.585 o
-6 4 9 0.798 0.815 0.326 28.106 o
-6 4 10 0.051 0.132 0.194 83.067 o
-6 5 -5 0.001 0.071 0.214 68.689 o
-6 5 -4 0.382 0.479 0.112 204.304 o
-6 5 -3 0.106 0.102 0.183 91.932 o
-6 5 -2 1.504 1.192 0.122 119.708 o
-6 5 -1 0.308 0.234 0.122 186.939 o
-6 5 0 0.690 0.693 0.122 157.819 o
-6 5 1 1.599 1.600 0.122 111.239 o
-6 5 2 7.088 7.255 0.143 24.663 o
-6 5 3 0.003 0.163 0.163 117.113 o
-6 5 4 18.384 18.842 0.377 4.672 o
-6 5 5 0.513 0.540 0.112 194.027 o
-6 5 6 3.266 3.434 0.132 60.331 o
-6 5 7 0.220 0.183 0.143 145.125 o
-6 5 8 0.418 0.550 0.122 173.457 o
-6 5 9 0.657 0.642 0.183 82.263 o
-6 5 10 0.145 0.224 0.153 128.804 o
-6 6 -5 0.000 0.163 0.194 83.415 o
-6 6 -4 0.003 0.031 0.112 249.684 o
-6 6 -3 0.011 0.031 0.122 209.507 o
-6 6 -2 3.039 2.721 0.132 67.329 o
-6 6 -1 0.007 0.153 0.153 133.029 o
-6 6 0 1.356 1.243 0.122 123.410 o
-6 6 1 0.043 0.020 0.092 365.282 o
-6 6 2 1.442 1.396 0.122 118.530 o
-6 6 3 0.354 0.245 0.122 184.293 o
-6 6 4 0.123 0.194 0.173 101.881 o
-6 6 5 0.269 0.357 0.122 185.792 o
-6 6 6 1.723 1.793 0.122 105.486 o
-6 6 7 0.000 0.112 0.183 93.144 o
-6 6 8 0.021 0.194 0.183 92.401 o
-6 6 9 0.001 0.112 0.163 117.646 o
-6 6 10 0.671 0.642 0.132 141.210 o
-6 7 -5 0.031 0.071 0.224 62.447 o
-6 7 -4 0.560 0.428 0.194 76.717 o
-6 7 -3 0.345 0.194 0.143 141.141 o
-6 7 -2 0.028 0.785 0.520 11.605 o
-6 7 -1 0.891 0.693 0.122 149.527 o
-6 7 0 3.195 3.169 0.255 32.298 o
-6 7 1 2.988 2.874 0.306 25.660 o
-6 7 2 2.239 2.344 0.122 87.959 o
-6 7 3 8.504 8.295 0.520 7.694 o
-6 7 4 0.108 0.143 0.143 149.297 o
-6 7 5 4.440 4.198 0.132 45.994 o
-6 7 6 0.041 0.224 0.173 102.882 o
-6 7 7 0.045 0.041 0.173 104.205 o
-6 7 8 1.358 1.264 0.122 123.054 o
-6 7 9 0.072 0.051 0.163 116.870 o
-6 8 -5 0.325 0.438 0.132 157.384 o
-6 8 -4 0.126 0.194 0.153 129.623 o
-6 8 -3 0.003 0.010 0.051 1199.840 o
-6 8 -2 0.007 0.122 0.183 93.004 o
-6 8 -1 0.321 0.306 0.143 140.173 o
-6 8 0 0.013 0.031 0.143 154.173 o
-6 8 1 0.330 0.377 0.132 158.398 o
-6 8 2 1.015 0.876 0.173 84.389 o
-6 8 3 0.437 0.479 0.122 174.236 o
-6 8 4 0.304 0.326 0.122 184.767 o
-6 8 5 1.128 1.162 0.132 119.194 o
-6 8 6 0.442 0.530 0.122 172.782 o
-6 8 7 1.183 1.345 0.132 115.213 o
-6 8 8 0.198 0.306 0.143 143.928 o
-6 8 9 0.012 0.163 0.183 92.696 o
-6 9 -5 0.294 0.296 0.143 141.157 o
-6 9 -4 0.000 0.041 0.173 104.871 o
-6 9 -3 0.534 0.479 0.194 76.725 o
-6 9 -2 0.141 0.173 0.153 129.519 o
-6 9 -1 0.617 0.703 0.275 39.272 o
-6 9 0 1.117 0.907 0.275 37.671 o
-6 9 1 3.545 3.363 0.448 13.252 o
-6 9 2 2.299 2.140 0.285 30.942 o
-6 9 3 0.313 0.306 0.122 184.846 o
-6 9 4 1.029 1.162 0.122 135.583 o
-6 9 5 0.002 0.082 0.173 104.536 o
-6 9 6 0.057 0.143 0.183 92.280 o
-6 9 7 0.850 0.917 0.183 78.512 o
-6 9 8 0.015 0.153 0.153 132.838 o
-6 10 -4 0.282 0.326 0.143 141.043 o
-6 10 -3 0.021 0.082 0.234 57.183 o
-6 10 -2 0.148 0.173 0.163 114.267 o
-6 10 -1 0.298 0.204 0.194 80.324 o
-6 10 0 0.290 0.306 0.132 161.353 o
-6 10 1 0.194 0.163 0.153 128.354 o
-6 10 2 0.237 0.204 0.143 144.305 o
-6 10 3 0.843 0.876 0.122 147.804 o
-6 10 4 0.333 0.316 0.132 159.442 o
-6 10 5 0.108 0.194 0.194 82.219 o
-6 10 6 1.191 1.253 0.183 72.980 o
-6 10 7 0.498 0.530 0.132 149.232 o
-6 11 -3 0.004 0.132 0.214 68.472 o
-6 11 -2 0.008 0.194 0.204 75.167 o
-6 11 -1 0.172 0.173 0.204 73.948 o
-6 11 0 0.896 0.917 0.122 144.934 o
-6 11 1 0.733 0.754 0.367 22.543 o
-6 11 2 0.524 0.234 0.153 119.795 o
-6 11 3 0.047 0.071 0.204 75.346 o
-6 11 4 0.002 0.143 0.214 68.456 o
-6 11 5 0.137 0.214 0.173 101.524 o
-6 11 6 0.154 0.520 0.357 24.454 o
-6 12 -1 0.442 0.479 0.153 118.874 o
-6 12 0 0.148 0.102 0.255 47.986 o
-6 12 1 0.136 0.214 0.153 129.142 o
-6 12 2 0.308 0.428 0.132 158.258 o
-6 12 3 0.141 0.092 0.204 74.513 o
-6 12 4 0.043 0.132 0.194 83.144 o
-5 0 -3 7.404 6.838 0.224 19.778 o
-5 0 -1 0.628 0.316 0.163 104.166 o
-5 0 1 19.971 20.605 0.510 3.586 o
-5 0 3 1.795 2.262 0.153 77.809 o
-5 0 5 11.401 11.617 0.285 10.051 o
-5 0 7 0.550 0.774 0.194 75.156 o
-5 0 9 2.268 2.323 0.173 61.773 o
-5 0 11 0.058 0.071 0.245 52.416 o
-5 1 -4 7.264 7.092 0.163 23.259 o
-5 1 -3 1.698 1.345 0.194 62.239 o
-5 1 -2 0.148 0.204 0.173 101.431 o
-5 1 -1 9.950 8.906 0.163 15.809 o
-5 1 0 6.327 6.491 0.927 3.322 o
-5 1 1 7.154 7.918 0.346 13.488 o
-5 1 2 3.892 4.168 0.122 52.753 o
-5 1 3 0.213 0.306 0.194 80.659 o
-5 1 4 7.539 8.009 0.153 21.855 o
-5 1 5 5.633 6.206 0.173 29.089 o
-5 1 6 19.930 21.399 0.418 3.904 o
-5 1 7 17.985 19.596 0.346 4.836 o
-5 1 8 7.936 7.806 0.387 11.438 o
-5 1 9 1.786 1.824 0.132 95.420 o
-5 1 10 0.054 0.102 0.183 92.555 o
-5 1 11 0.408 0.346 0.132 155.967 o
-5 1 12 0.136 0.224 0.132 169.236 o
-5 2 -4 2.586 3.169 0.316 24.838 o
-5 2 -3 5.936 6.226 0.438 11.485 o
-5 2 -2 7.926 7.337 0.652 5.768 o
-5 2 -1 7.256 6.420 0.204 21.729 o
-5 2 0 0.915 0.988 0.102 180.105 o
-5 2 1 0.189 0.194 0.122 194.490 o
-5 2 2 6.090 6.491 0.143 29.434 o
-5 2 3 0.710 0.836 0.112 174.280 o
-5 2 4 3.995 4.321 0.132 49.044 o
-5 2 5 3.093 3.404 0.132 62.476 o
-5 2 6 4.502 4.800 0.153 40.154 o
-5 2 7 0.083 0.112 0.173 103.091 o
-5 2 8 1.128 0.988 0.143 109.761 o
-5 2 9 2.756 2.456 0.122 77.698 o
-5 2 10 1.163 1.080 0.122 132.352 o
-5 2 11 0.604 0.622 0.132 143.840 o
-5 3 -4 1.392 1.539 0.143 98.101 o
-5 3 -3 2.277 2.435 0.367 20.211 o
-5 3 -2 3.862 4.249 0.316 21.801 o
-5 3 -1 0.081 0.051 0.183 92.546 o
-5 3 0 15.819 14.490 0.357 6.175 o
-5 3 1 2.596 2.609 0.214 44.611 o
-5 3 2 0.329 0.285 0.112 214.433 o
-5 3 3 11.992 13.003 0.245 9.788 o
-5 3 4 2.205 2.344 0.122 88.624 o
-5 3 5 14.911 15.774 0.306 6.719 o
-5 3 6 6.565 7.052 0.591 7.057 o
-5 3 7 5.640 5.543 0.183 29.287 o
-5 3 8 5.390 5.401 0.204 28.323 o
-5 3 9 0.677 0.683 0.224 57.176 o
-5 3 10 0.090 0.122 0.194 82.737 o
-5 3 11 0.019 0.061 0.194 83.722 o
-5 4 -4 3.093 3.088 0.214 40.839 o
-5 4 -3 5.955 6.726 0.927 3.335 o
-5 4 -2 17.370 17.731 1.427 1.254 o
-5 4 -1 5.877 5.666 0.143 32.045 o
-5 4 0 2.738 2.609 0.122 76.745 o
-5 4 1 0.511 0.571 0.112 193.215 o
-5 4 2 0.056 0.041 0.153 133.211 o
-5 4 3 1.817 1.946 0.122 101.327 o
-5 4 4 4.850 5.370 0.143 37.931 o
-5 4 5 2.896 3.118 0.143 62.898 o
-5 4 6 1.906 1.997 0.143 84.411 o
-5 4 7 0.263 0.306 0.112 218.421 o
-5 4 8 3.778 3.628 0.132 54.052 o
-5 4 9 2.034 1.987 0.285 31.764 o
-5 4 10 3.783 3.556 0.132 54.350 o
-5 4 11 0.283 0.296 0.183 88.659 o
-5 5 -4 0.000 0.010 0.061 839.442 o
-5 5 -3 0.526 0.652 0.132 146.054 o
-5 5 -2 0.949 1.182 0.143 111.672 o
-5 5 -1 9.477 9.079 0.642 5.464 o
-5 5 0 1.026 0.948 0.143 112.622 o
-5 5 1 1.451 1.396 0.173 75.603 o
-5 5 2 3.777 3.944 0.132 52.590 o
-5 5 3 4.426 4.800 0.489 10.751 o
-5 5 4 10.574 11.260 0.265 11.252 o
-5 5 5 0.020 0.051 0.183 93.274 o
-5 5 6 1.054 0.988 0.112 153.778 o
-5 5 7 3.243 3.322 0.122 64.457 o
-5 5 8 0.018 0.316 0.265 44.477 o
-5 5 9 0.113 0.153 0.183 91.545 o
-5 5 10 0.168 0.183 0.153 128.741 o
-5 5 11 0.226 0.153 0.153 127.710 o
-5 6 -4 1.727 1.671 0.122 106.928 o
-5 6 -3 7.673 6.797 0.245 18.231 o
-5 6 -2 5.589 6.053 0.163 30.512 o
-5 6 -1 6.028 6.216 0.163 28.531 o
-5 6 0 10.199 10.353 0.683 4.791 o
-5 6 1 0.445 0.601 0.122 170.932 o
-5 6 2 9.474 10.241 0.489 7.585 o
-5 6 3 0.207 0.224 0.183 89.998 o
-5 6 4 2.039 2.323 0.132 85.695 o
-5 6 5 4.842 4.310 1.427 1.509 o
-5 6 6 0.459 0.469 0.112 199.604 o
-5 6 7 0.166 0.204 0.122 195.505 o
-5 6 8 1.639 1.630 0.122 109.739 o
-5 6 9 4.306 4.137 0.143 45.366 o
-5 6 10 0.621 0.642 0.132 142.923 o
-5 6 11 0.502 0.448 0.132 150.562 o
-5 7 -4 0.129 0.183 0.153 129.680 o
-5 7 -3 0.374 0.285 0.122 182.220 o
-5 7 -2 1.794 1.681 0.224 48.315 o
-5 7 -1 2.448 2.109 0.316 25.988 o
-5 7 0 2.025 2.069 0.143 81.864 o
-5 7 1 0.468 0.591 0.224 58.604 o
-5 7 2 0.093 0.479 0.306 33.245 o
-5 7 3 3.586 3.597 0.173 45.917 o
-5 7 4 0.141 0.306 0.163 113.160 o
-5 7 5 0.237 0.224 0.132 165.105 o
-5 7 6 0.793 0.724 0.122 152.895 o
-5 7 7 2.132 2.211 0.122 91.420 o
-5 7 8 0.287 0.255 0.132 162.453 o
-5 7 9 0.115 0.010 0.082 440.060 o
-5 7 10 0.025 0.102 0.173 104.032 o
-5 8 -4 0.549 0.550 0.112 191.501 o
-5 8 -3 0.890 0.978 0.245 47.270 o
-5 8 -2 2.181 1.855 0.122 94.135 o
-5 8 -1 5.025 4.575 0.479 10.902 o
-5 8 0 0.154 0.224 0.122 195.614 o
-5 8 1 14.692 13.879 1.630 1.052 o
-5 8 2 1.135 1.070 0.112 148.494 o
-5 8 3 5.458 5.442 0.357 15.921 o
-5 8 4 0.886 1.009 0.112 161.056 o
-5 8 5 0.467 0.438 0.122 173.756 o
-5 8 6 0.455 0.418 0.132 152.869 o
-5 8 7 1.575 1.610 0.122 111.744 o
-5 8 8 1.092 1.070 0.122 134.983 o
-5 8 9 0.202 0.275 0.122 191.556 o
-5 8 10 0.501 0.601 0.132 147.832 o
-5 9 -4 1.975 1.885 0.132 91.007 o
-5 9 -3 0.094 0.112 0.173 102.922 o
-5 9 -2 0.034 0.082 0.153 133.249 o
-5 9 -1 0.093 0.071 0.183 92.270 o
-5 9 0 2.144 2.018 0.122 93.205 o
-5 9 1 0.119 0.163 0.163 114.916 o
-5 9 2 0.043 0.224 0.173 102.849 o
-5 9 3 0.830 0.713 0.112 171.211 o
-5 9 4 0.219 0.357 0.112 219.772 o
-5 9 5 1.460 1.396 0.122 117.988 o
-5 9 6 2.298 2.293 0.265 34.535 o
-5 9 7 0.295 0.143 0.163 111.788 o
-5 9 8 1.487 1.671 0.183 67.811 o
-5 9 9 0.003 0.071 0.204 75.691 o
-5 10 -4 0.061 0.153 0.194 82.869 o
-5 10 -3 0.067 0.163 0.194 82.766 o
-5 10 -2 0.092 0.143 0.194 82.624 o
-5 10 -1 0.117 0.173 0.132 171.084 o
-5 10 0 4.296 4.494 0.448 12.518 o
-5 10 1 1.128 1.131 0.122 132.657 o
-5 10 2 6.212 6.236 0.825 4.110 o
-5 10 3 0.065 0.194 0.132 172.869 o
-5 10 4 0.001 0.173 0.143 152.226 o
-5 10 5 0.122 0.275 0.153 128.728 o
-5 10 6 1.552 1.559 0.122 113.061 o
-5 10 7 0.066 0.122 0.183 92.297 o
-5 10 8 0.036 0.051 0.132 177.172 o
-5 11 -4 0.000 0.031 0.143 154.587 o
-5 11 -3 0.272 0.438 0.183 87.945 o
-5 11 -2 0.112 0.122 0.194 82.524 o
-5 11 -1 0.496 0.408 0.194 77.431 o
-5 11 0 0.088 0.234 0.132 171.007 o
-5 11 1 0.261 0.224 0.132 164.137 o
-5 11 2 1.244 1.192 0.132 115.642 o
-5 11 3 0.059 0.051 0.173 103.916 o
-5 11 4 3.798 3.944 0.479 11.602 o
-5 11 5 0.496 0.591 0.122 168.789 o
-5 11 6 0.835 0.978 0.306 31.533 o
-5 11 7 1.313 1.559 0.234 47.609 o
-5 11 8 0.005 0.051 0.204 75.756 o
-5 12 -4 0.001 0.020 0.122 210.432 o
-5 12 -3 0.142 0.234 0.163 113.800 o
-5 12 -2 0.173 0.245 0.194 81.340 o
-5 12 -1 0.018 0.082 0.214 68.547 o
-5 12 0 0.288 0.143 0.204 73.143 o
-5 12 1 1.657 1.824 0.163 76.626 o
-5 12 2 0.034 0.173 0.194 83.036 o
-5 12 3 0.186 0.173 0.163 113.559 o
-5 12 4 0.004 0.132 0.163 117.397 o
-5 12 5 0.761 0.836 0.132 135.017 o
-5 12 6 0.078 0.143 0.163 115.891 o
-5 13 -2 0.023 0.112 0.194 83.437 o
-5 13 -1 0.397 0.469 0.132 154.094 o
-5 13 0 0.080 0.163 0.183 91.886 o
-5 13 1 0.069 0.204 0.173 102.611 o
-5 13 2 0.005 0.143 0.214 68.435 o
-5 13 3 2.818 2.792 0.214 42.964 o
-5 13 4 0.020 0.122 0.183 92.848 o
-5 13 5 1.554 1.702 0.132 101.774 o
-5 14 1 0.063 0.061 0.143 152.059 o
-5 14 2 0.055 0.173 0.234 56.822 o
-4 0 -2 13.028 13.104 0.326 7.974 o
-4 0 0 197.118 193.837 1.763 0.062 o
-4 0 2 106.096 114.089 1.325 0.189 o
-4 0 4 2.082 1.946 0.194 56.710 o
-4 0 6 5.956 6.002 0.194 26.517 o
-4 0 8 7.619 7.846 0.245 17.454 o
-4 0 10 0.557 0.571 0.163 103.177 o
-4 0 12 3.299 3.067 0.204 42.156 o
-4 1 -3 0.429 0.448 0.143 134.893 o
-4 1 -2 20.012 17.996 1.844 0.794 o
-4 1 -1 0.029 0.020 0.092 367.914 o
-4 1 0 1.239 1.202 0.102 156.764 o
-4 1 1 12.467 13.410 0.245 9.308 o
-4 1 2 38.839 42.208 0.591 1.248 o
-4 1 3 6.408 7.011 0.132 27.966 o
-4 1 4 2.510 2.884 0.102 88.210 o
-4 1 5 4.434 4.514 0.122 46.586 o
-4 1 6 6.098 6.165 0.143 30.054 o
-4 1 7 3.111 3.200 0.132 63.465 o
-4 1 8 0.183 0.082 0.214 67.469 o
-4 1 9 0.185 0.183 0.122 195.016 o
-4 1 10 3.700 3.271 0.265 29.109 o
-4 1 11 0.300 0.173 0.153 125.706 o
-4 1 12 0.224 0.153 0.153 127.750 o
-4 2 -3 0.172 0.163 0.122 196.304 o
-4 2 -2 1.307 1.243 0.204 60.885 o
-4 2 -1 57.923 54.293 0.693 0.669 o
-4 2 0 1.680 1.783 0.143 90.226 o
-4 2 1 127.441 127.570 1.457 0.140 o
-4 2 2 3.518 3.658 0.102 64.765 o
-4 2 3 13.687 14.684 0.285 7.725 o
-4 2 4 24.844 25.995 0.601 2.446 o
-4 2 5 0.851 1.060 0.112 161.554 o
-4 2 6 1.877 1.814 0.122 101.471 o
-4 2 7 8.021 8.325 0.163 19.910 o
-4 2 8 2.100 2.007 0.143 81.155 o
-4 2 9 0.773 0.734 0.112 173.654 o
-4 2 10 0.520 0.377 0.122 172.721 o
-4 2 11 2.092 1.967 0.153 75.724 o
-4 2 12 0.004 0.031 0.143 154.459 o
-4 3 -3 22.246 22.775 2.782 0.372 o
-4 3 -2 3.814 3.546 0.530 9.816 o
-4 3 -1 46.165 39.711 0.724 1.005 o
-4 3 0 3.207 2.751 0.306 25.363 o
-4 3 1 6.712 6.318 0.194 23.880 o
-4 3 2 0.040 0.143 0.112 241.869 o
-4 3 3 36.738 38.977 0.601 1.375 o
-4 3 4 1.568 1.763 0.112 119.845 o
-4 3 5 0.074 0.143 0.163 115.959 o
-4 3 6 0.697 0.805 0.122 155.175 o
-4 3 7 0.079 0.112 0.194 82.896 o
-4 3 8 0.080 0.112 0.163 116.144 o
-4 3 9 8.320 7.785 0.153 20.258 o
-4 3 10 0.024 0.020 0.102 299.735 o
-4 3 11 2.979 2.894 0.132 66.986 o
-4 3 12 0.000 0.061 0.194 83.908 o
-4 4 -3 4.839 5.003 0.265 24.154 o
-4 4 -2 3.429 3.821 0.275 27.694 o
-4 4 -1 0.798 0.846 0.102 191.926 o
-4 4 0 28.748 26.596 1.386 1.036 o
-4 4 1 2.663 2.548 0.102 88.534 o
-4 4 2 13.786 13.767 0.275 8.025 o
-4 4 3 25.402 26.535 0.856 1.858 o
-4 4 4 0.556 0.550 0.153 115.535 o
-4 4 5 20.414 21.318 0.377 3.982 o
-4 4 6 2.239 2.201 0.122 89.369 o
-4 4 7 1.370 1.396 0.132 109.773 o
-4 4 8 1.798 1.712 0.112 113.634 o
-4 4 9 3.664 3.353 0.132 56.532 o
-4 4 10 0.095 0.071 0.214 68.078 o
-4 4 11 0.006 0.132 0.163 117.351 o
-4 4 12 0.406 0.469 0.122 176.000 o
-4 5 -3 0.908 0.876 0.122 145.278 o
-4 5 -2 42.103 43.033 0.713 1.071 o
-4 5 -1 4.326 4.209 0.132 46.834 o
-4 5 0 7.936 7.520 0.265 16.286 o
-4 5 1 1.066 1.121 0.102 167.742 o
-4 5 2 20.605 20.482 0.357 4.104 o
-4 5 3 5.354 5.482 0.183 30.465 o
-4 5 4 11.765 12.524 0.214 10.615 o
-4 5 5 0.620 0.662 0.122 161.564 o
-4 5 6 1.462 1.508 0.132 106.168 o
-4 5 7 2.380 2.517 0.143 73.191 o
-4 5 8 7.748 7.388 0.234 18.108 o
-4 5 9 0.009 0.143 0.143 152.457 o
-4 5 10 6.722 6.420 0.479 9.713 o
-4 5 11 0.120 0.122 0.183 91.643 o
-4 6 -3 1.211 1.039 0.132 118.605 o
-4 6 -2 0.293 0.224 0.153 125.275 o
-4 6 -1 0.553 0.632 0.112 188.847 o
-4 6 0 10.007 9.793 0.183 14.564 o
-4 6 1 0.039 0.163 0.122 203.931 o
-4 6 2 0.035 0.143 0.153 132.479 o
-4 6 3 0.173 0.051 0.163 114.950 o
-4 6 4 18.028 18.037 0.591 3.682 o
-4 6 5 1.081 1.009 0.122 136.443 o
-4 6 6 0.347 0.387 0.132 157.535 o
-4 6 7 0.493 0.367 0.163 106.122 o
-4 6 8 4.498 4.494 0.132 44.471 o
-4 6 9 0.000 0.061 0.194 83.907 o
-4 6 10 0.258 0.306 0.132 162.596 o
-4 6 11 0.001 0.031 0.112 249.808 o
-4 7 -3 11.579 12.371 0.387 7.984 o
-4 7 -2 0.756 0.581 0.122 157.430 o
-4 7 -1 12.163 12.534 0.234 9.986 o
-4 7 0 0.116 0.122 0.183 91.688 o
-4 7 1 0.098 0.132 0.163 115.606 o
-4 7 2 9.969 10.098 0.255 12.611 o
-4 7 3 6.063 6.532 0.346 15.262 o
-4 7 4 0.001 0.061 0.194 83.902 o
-4 7 5 3.472 3.638 0.367 18.312 o
-4 7 6 10.647 10.170 0.560 6.137 o
-4 7 7 5.234 4.851 0.132 38.510 o
-4 7 8 1.995 1.834 0.132 91.111 o
-4 7 9 5.310 5.105 0.173 32.544 o
-4 7 10 0.159 0.132 0.204 74.212 o
-4 7 11 0.711 0.662 0.132 139.501 o
-4 8 -3 0.385 0.540 0.204 70.791 o
-4 8 -2 0.421 0.428 0.194 78.058 o
-4 8 -1 4.716 4.749 0.153 39.045 o
-4 8 0 3.182 2.955 0.143 60.631 o
-4 8 1 9.276 9.212 0.183 16.056 o
-4 8 2 1.181 1.131 0.132 118.156 o
-4 8 3 0.189 0.224 0.132 167.061 o
-4 8 4 1.565 1.518 0.163 79.922 o
-4 8 5 0.526 0.489 0.102 225.051 o
-4 8 6 0.637 0.683 0.112 182.470 o
-4 8 7 1.794 1.895 0.112 111.110 o
-4 8 8 0.171 0.377 0.122 190.486 o
-4 8 9 0.471 0.520 0.163 105.145 o
-4 8 10 0.001 0.051 0.163 118.229 o
-4 9 -3 0.750 0.713 0.112 175.442 o
-4 9 -2 1.090 1.172 0.143 108.542 o
-4 9 -1 0.001 0.051 0.163 118.241 o
-4 9 0 0.154 0.224 0.183 90.624 o
-4 9 1 4.729 5.207 0.163 36.294 o
-4 9 2 0.023 0.183 0.183 92.439 o
-4 9 3 2.392 2.303 0.255 36.322 o
-4 9 4 0.603 0.591 0.112 187.069 o
-4 9 5 5.742 5.910 0.153 31.150 o
-4 9 6 2.776 2.507 0.163 59.953 o
-4 9 7 6.346 6.634 0.703 5.387 o
-4 9 8 2.434 2.405 0.132 78.303 o
-4 9 9 0.029 0.275 0.132 172.638 o
-4 9 10 0.264 0.183 0.163 112.001 o
-4 10 -3 2.073 2.130 0.122 93.515 o
-4 10 -2 1.013 0.836 0.112 159.151 o
-4 10 -1 0.412 0.479 0.112 202.320 o
-4 10 0 6.807 6.348 0.143 27.050 o
-4 10 1 2.423 2.079 0.163 65.851 o
-4 10 2 3.722 3.597 0.438 13.599 o
-4 10 3 1.005 1.121 0.173 82.909 o
-4 10 4 0.653 0.662 0.357 23.919 o
-4 10 5 2.864 2.629 0.204 45.813 o
-4 10 6 1.004 0.764 0.122 143.744 o
-4 10 7 0.049 0.031 0.132 177.044 o
-4 10 8 0.218 0.163 0.183 90.229 o
-4 10 9 0.238 0.183 0.163 112.480 o
-4 11 -3 0.091 0.031 0.132 175.231 o
-4 11 -2 0.023 0.245 0.173 102.996 o
-4 11 -1 0.788 0.673 0.122 154.149 o
-4 11 0 0.518 0.662 0.122 166.140 o
-4 11 1 0.034 0.061 0.173 104.211 o
-4 11 2 2.088 2.160 0.224 45.554 o
-4 11 3 0.490 0.459 0.112 197.975 o
-4 11 4 0.319 0.245 0.122 186.117 o
-4 11 5 0.358 0.224 0.173 98.171 o
-4 11 6 3.452 3.638 0.132 57.243 o
-4 11 7 1.099 0.887 0.122 137.976 o
-4 11 8 0.296 0.377 0.122 183.856 o
-4 12 -3 0.330 0.316 0.132 159.579 o
-4 12 -2 0.362 0.489 0.122 177.694 o
-4 12 -1 1.453 1.172 0.132 110.503 o
-4 12 0 0.396 0.428 0.143 136.150 o
-4 12 1 1.966 1.763 0.163 73.067 o
-4 12 2 0.256 0.245 0.122 189.464 o
-4 12 3 2.028 1.977 0.173 65.919 o
-4 12 4 3.749 3.811 0.224 34.403 o
-4 12 5 1.626 1.559 0.153 85.689 o
-4 12 6 0.353 0.255 0.143 139.986 o
-4 12 7 0.134 0.183 0.173 101.783 o
-4 12 8 0.353 0.357 0.132 157.876 o
-4 13 -3 0.008 0.051 0.183 93.422 o
-4 13 -2 1.384 1.386 0.153 91.156 o
-4 13 -1 0.005 0.153 0.173 103.952 o
-4 13 0 0.356 0.173 0.194 79.916 o
-4 13 1 0.288 0.224 0.153 125.392 o
-4 13 2 0.781 0.937 0.122 149.054 o
-4 13 3 0.023 0.153 0.204 75.212 o
-4 13 4 0.145 0.224 0.173 101.324 o
-4 13 5 0.317 0.469 0.143 137.865 o
-4 13 6 0.419 0.418 0.153 120.097 o
-4 14 -3 0.281 0.183 0.183 89.353 o
-4 14 -2 0.317 0.418 0.214 65.478 o
-4 14 -1 0.033 0.041 0.173 104.382 o
-4 14 0 0.061 0.245 0.204 74.544 o
-4 14 1 0.123 0.204 0.143 147.861 o
-4 14 2 0.311 0.255 0.143 141.261 o
-4 14 3 1.790 2.130 0.132 92.230 o
-4 14 4 1.223 1.264 0.132 115.246 o
-4 14 5 0.926 0.927 0.132 128.427 o
-4 15 0 0.002 0.153 0.204 75.377 o
-4 15 1 0.078 0.031 0.112 243.352 o
-4 15 2 0.003 0.061 0.234 57.313 o
-3 0 -1 57.524 53.386 0.815 0.655 o
-3 0 1 1.647 1.936 0.102 124.659 o
-3 0 3 87.495 91.049 1.090 0.281 o
-3 0 5 1.666 1.855 0.132 97.618 o
-3 0 7 10.896 10.516 0.296 10.643 o
-3 0 9 0.289 0.296 0.173 98.649 o
-3 0 11 3.977 3.760 0.204 37.068 o
-3 1 -2 23.125 23.142 2.150 0.583 o
-3 1 -1 23.834 21.888 1.447 1.092 o
-3 1 0 171.544 161.137 7.469 0.035 o
-3 1 1 270.648 269.906 10.435 0.016 o
-3 1 2 150.485 154.921 5.003 0.059 o
-3 1 3 15.942 17.303 0.265 6.316 o
-3 1 4 1.256 1.264 0.550 10.090 o
-3 1 5 41.236 43.237 1.019 0.922 o
-3 1 6 16.553 16.814 0.326 5.769 o
-3 1 7 5.385 5.299 0.132 36.396 o
-3 1 8 3.344 3.251 0.132 60.477 o
-3 1 9 0.118 0.132 0.132 171.920 o
-3 1 10 1.905 1.641 0.183 63.930 o
-3 1 11 0.701 0.591 0.122 159.564 o
-3 1 12 1.582 1.539 0.092 146.746 o
-3 2 -2 3.853 4.321 0.306 22.752 o
-3 2 -1 17.230 16.467 0.693 3.369 o
-3 2 0 22.639 21.797 0.581 2.913 o
-3 2 1 4.790 4.514 0.163 37.781 o
-3 2 2 47.381 48.495 1.355 0.646 o
-3 2 3 79.130 81.001 2.711 0.203 o
-3 2 4 46.948 48.903 0.917 0.814 o
-3 2 5 15.428 15.734 0.296 6.603 o
-3 2 6 1.137 1.090 0.224 53.475 o
-3 2 7 0.066 0.071 0.194 83.219 o
-3 2 8 0.635 0.489 0.122 164.740 o
-3 2 9 0.018 0.234 0.194 82.900 o
-3 2 10 2.941 2.670 0.122 73.100 o
-3 2 11 0.188 0.194 0.173 100.914 o
-3 2 12 1.003 1.060 0.102 172.950 o
-3 3 -2 14.688 14.460 0.275 7.389 o
-3 3 -1 37.037 34.005 2.171 0.485 o
-3 3 0 48.150 42.809 3.954 0.170 o
-3 3 1 35.426 34.137 0.489 1.627 o
-3 3 2 66.657 65.513 0.897 0.484 o
-3 3 3 5.460 5.187 0.122 37.406 o
-3 3 4 18.298 18.495 0.296 5.158 o
-3 3 5 0.808 0.846 0.163 96.515 o
-3 3 6 14.577 14.572 0.255 7.609 o
-3 3 7 4.432 4.341 0.132 45.521 o
-3 3 8 2.053 2.272 0.214 48.568 o
-3 3 9 5.197 4.759 0.132 39.002 o
-3 3 10 0.944 0.866 0.112 161.735 o
-3 3 11 1.999 2.007 0.102 112.097 o
-3 3 12 0.601 0.581 0.102 215.388 o
-3 4 -2 13.897 13.145 0.224 8.704 o
-3 4 -1 1.550 3.964 2.425 0.535 o
-3 4 0 9.718 8.600 0.469 8.192 o
-3 4 1 14.363 14.134 0.642 4.208 o
-3 4 2 86.550 88.257 0.785 0.306 o
-3 4 3 62.401 63.943 0.836 0.538 o
-3 4 4 93.051 93.342 0.887 0.267 o
-3 4 5 14.995 15.846 0.408 5.782 o
-3 4 6 1.158 1.345 0.194 66.914 o
-3 4 7 0.863 0.897 0.112 164.913 o
-3 4 8 0.482 0.275 0.173 95.973 o
-3 4 9 1.579 1.416 0.112 125.122 o
-3 4 10 0.577 0.642 0.173 91.992 o
-3 4 11 0.716 0.754 0.102 200.571 o
-3 4 12 0.055 0.061 0.163 117.106 o
-3 5 -2 23.349 22.398 0.346 3.478 o
-3 5 -1 1.551 1.274 0.102 141.011 o
-3 5 0 0.478 0.438 0.092 270.348 o
-3 5 1 25.442 24.599 0.795 2.028 o
-3 5 2 0.956 0.968 0.092 200.673 o
-3 5 3 0.048 0.051 0.143 152.682 o
-3 5 4 3.274 2.945 0.112 70.008 o
-3 5 5 10.421 10.435 0.204 13.163 o
-3 5 6 1.328 1.233 0.112 137.389 o
-3 5 7 0.481 0.448 0.122 172.876 o
-3 5 8 2.684 2.252 0.153 66.364 o
-3 5 9 4.175 3.821 0.183 39.605 o
-3 5 10 2.377 1.946 0.122 89.147 o
-3 5 11 0.019 0.112 0.143 152.652 o
-3 5 12 0.032 0.132 0.122 205.199 o
-3 6 -2 0.037 0.071 0.153 133.296 o
-3 6 -1 16.560 16.528 0.571 4.141 o
-3 6 0 14.232 13.431 0.917 2.707 o
-3 6 1 4.746 4.759 0.112 44.801 o
-3 6 2 30.805 31.080 0.550 1.911 o
-3 6 3 82.270 81.297 0.897 0.335 o
-3 6 4 24.149 24.436 0.968 1.752 o
-3 6 5 11.532 11.698 0.224 11.005 o
-3 6 6 13.999 14.317 0.265 7.874 o
-3 6 7 1.556 1.773 0.296 31.236 o
-3 6 8 5.382 4.728 0.387 14.651 o
-3 6 9 0.020 0.204 0.122 203.799 o
-3 6 10 0.367 0.367 0.102 244.309 o
-3 6 11 0.614 0.581 0.102 214.369 o
-3 6 12 0.099 0.183 0.163 115.089 o
-3 7 -2 2.323 2.171 0.143 76.488 o
-3 7 -1 0.027 0.031 0.112 247.645 o
-3 7 0 0.408 0.367 0.112 206.293 o
-3 7 1 19.578 19.687 0.479 3.853 o
-3 7 2 0.657 0.683 0.275 39.193 o
-3 7 3 0.509 0.662 0.122 166.519 o
-3 7 4 1.452 1.641 0.112 125.629 o
-3 7 5 11.255 12.666 1.793 0.913 o
-3 7 6 0.002 0.041 0.163 118.314 o
-3 7 7 0.715 0.724 0.194 73.832 o
-3 7 8 1.659 1.641 0.143 91.939 o
-3 7 9 1.250 1.141 0.122 128.414 o
-3 7 10 0.166 0.255 0.132 167.350 o
-3 7 11 0.004 0.122 0.173 104.195 o
-3 8 -2 1.046 1.131 0.255 43.099 o
-3 8 -1 8.995 8.560 0.316 12.560 o
-3 8 0 2.152 2.089 0.112 99.207 o
-3 8 1 17.217 16.783 0.530 4.254 o
-3 8 2 10.839 10.812 0.214 12.282 o
-3 8 3 6.804 6.807 0.234 20.405 o
-3 8 4 8.852 9.141 0.234 15.089 o
-3 8 5 11.501 11.688 0.734 4.078 o
-3 8 6 0.859 0.866 0.132 131.435 o
-3 8 7 12.634 11.688 0.856 3.172 o
-3 8 8 0.521 0.336 0.153 118.710 o
-3 8 9 1.354 1.243 0.275 36.572 o
-3 8 10 0.473 0.469 0.102 230.381 o
-3 8 11 0.278 0.316 0.102 255.302 o
-3 9 -2 0.105 0.234 0.143 147.926 o
-3 9 -1 1.444 1.508 0.122 116.826 o
-3 9 0 13.517 13.553 0.255 8.469 o
-3 9 1 0.203 0.173 0.143 145.817 o
-3 9 2 12.810 13.227 0.245 9.139 o
-3 9 3 0.001 0.071 0.224 62.610 o
-3 9 4 3.054 3.190 0.143 60.741 o
-3 9 5 0.216 0.143 0.153 128.072 o
-3 9 6 6.096 5.645 0.622 6.753 o
-3 9 7 0.183 0.204 0.122 194.564 o
-3 9 8 0.002 0.071 0.204 75.695 o
-3 9 9 0.114 0.153 0.204 74.488 o
-3 9 10 0.016 0.183 0.122 204.650 o
-3 10 -2 0.881 0.764 0.112 167.324 o
-3 10 -1 0.169 0.397 0.346 25.938 o
-3 10 0 9.918 9.895 0.469 7.851 o
-3 10 1 0.006 0.051 0.183 93.442 o
-3 10 2 0.950 1.060 0.163 92.464 o
-3 10 3 0.332 0.632 0.397 19.611 o
-3 10 4 0.376 0.336 0.112 209.428 o
-3 10 5 0.648 0.601 0.112 184.159 o
-3 10 6 6.824 6.308 0.296 17.191 o
-3 10 7 0.742 0.774 0.132 136.644 o
-3 10 8 3.233 2.925 0.387 17.345 o
-3 10 9 0.076 0.163 0.122 201.747 o
-3 10 10 0.076 0.143 0.132 173.473 o
-3 11 -2 7.602 7.643 0.224 18.641 o
-3 11 -1 1.466 1.488 0.122 116.475 o
-3 11 0 1.567 1.712 0.102 131.650 o
-3 11 1 7.526 7.327 0.224 19.074 o
-3 11 2 0.001 0.071 0.194 83.853 o
-3 11 3 0.070 0.071 0.194 83.181 o
-3 11 4 0.645 0.662 0.112 182.595 o
-3 11 5 3.462 3.505 0.194 42.358 o
-3 11 6 0.355 0.306 0.122 182.636 o
-3 11 7 0.409 0.367 0.234 54.731 o
-3 11 8 0.700 0.693 0.204 67.685 o
-3 11 9 0.014 0.010 0.051 1178.270 o
-3 12 -2 0.400 0.530 0.112 201.440 o
-3 12 -1 2.930 2.711 0.255 33.867 o
-3 12 0 0.118 0.163 0.163 114.922 o
-3 12 1 0.483 0.510 0.122 171.287 o
-3 12 2 0.160 0.214 0.122 195.514 o
-3 12 3 1.098 1.243 0.122 131.776 o
-3 12 4 1.095 0.937 0.122 137.204 o
-3 12 5 0.136 0.336 0.132 166.942 o
-3 12 6 0.319 0.336 0.132 159.616 o
-3 12 7 1.861 1.844 0.122 101.480 o
-3 12 8 0.065 0.041 0.153 132.996 o
-3 13 -2 0.002 0.112 0.183 93.127 o
-3 13 -1 3.959 4.137 0.143 47.982 o
-3 13 0 0.468 0.336 0.122 176.226 o
-3 13 1 0.041 0.143 0.173 103.484 o
-3 13 2 0.099 0.255 0.132 170.158 o
-3 13 3 0.140 0.296 0.204 73.715 o
-3 13 4 0.463 0.275 0.132 155.260 o
-3 13 5 0.799 0.734 0.122 152.435 o
-3 13 6 0.140 0.173 0.132 170.110 o
-3 13 7 0.159 0.306 0.173 100.502 o
-3 14 -2 0.311 0.316 0.173 98.182 o
-3 14 -1 0.711 0.693 0.183 81.351 o
-3 14 0 0.269 0.357 0.132 161.176 o
-3 14 1 0.070 0.724 0.560 9.987 o
-3 14 2 0.783 0.673 0.122 154.335 o
-3 14 3 0.600 0.703 0.143 126.557 o
-3 14 4 0.657 0.744 0.132 139.950 o
-3 14 5 0.142 0.326 0.122 193.438 o
-3 14 6 0.116 0.163 0.183 91.454 o
-3 15 -2 2.172 2.262 0.163 67.643 o
-3 15 -1 0.035 0.214 0.183 92.113 o
-3 15 0 0.208 0.245 0.132 165.853 o
-3 15 1 0.202 0.214 0.143 145.208 o
-3 15 2 0.004 0.112 0.194 83.628 o
-3 15 3 0.196 0.204 0.173 100.706 o
-3 15 4 0.357 0.459 0.173 96.469 o
-2 0 0 73.082 68.040 0.724 0.443 o
-2 0 2 202.025 206.279 1.355 0.060 o
-2 0 4 78.954 80.156 0.968 0.350 o
-2 0 6 198.119 198.137 1.824 0.061 o
-2 0 8 26.212 24.742 0.418 2.776 o
-2 0 10 0.042 0.102 0.163 116.957 o
-2 0 12 0.135 0.194 0.173 101.693 o
-2 1 -1 59.602 55.322 2.863 0.250 o
-2 1 0 106.910 97.713 2.700 0.151 o
-2 1 1 135.252 132.309 5.329 0.062 o
-2 1 2 9.022 9.018 0.163 17.261 o
-2 1 3 9.886 10.425 0.296 11.504 o
-2 1 4 158.094 157.896 2.058 0.089 o
-2 1 5 9.835 10.323 0.194 14.189 o
-2 1 6 2.994 3.088 0.163 55.213 o
-2 1 7 0.395 0.540 0.102 233.995 o
-2 1 8 5.538 5.207 0.143 34.718 o
-2 1 9 0.070 0.224 0.112 236.165 o
-2 1 10 0.003 0.112 0.153 133.625 o
-2 1 11 1.391 1.325 0.092 161.663 o
-2 1 12 0.682 0.673 0.122 158.601 o
-2 1 13 0.258 0.224 0.153 126.103 o
-2 2 -1 11.036 10.119 0.367 9.215 o
-2 2 0 14.724 14.439 0.275 7.377 o
-2 2 1 109.797 103.889 1.304 0.193 o
-2 2 2 103.399 104.194 1.386 0.203 o
-2 2 3 0.564 0.591 0.163 102.863 o
-2 2 4 22.214 23.804 0.418 3.343 o
-2 2 5 139.348 141.633 1.478 0.118 o
-2 2 6 0.161 0.092 0.163 114.801 o
-2 2 7 61.837 59.796 0.795 0.571 o
-2 2 8 1.237 1.335 0.143 103.478 o
-2 2 9 1.690 1.549 0.092 141.608 o
-2 2 10 1.913 1.834 0.082 136.423 o
-2 2 11 0.014 0.102 0.163 117.505 o
-2 2 12 0.004 0.143 0.173 104.054 o
-2 3 -1 4.787 4.372 0.387 15.321 o
-2 3 0 5.864 5.380 0.336 16.691 o
-2 3 1 0.039 0.041 0.112 246.200 o
-2 3 2 1.546 1.732 0.071 169.652 o
-2 3 3 235.424 234.231 6.848 0.027 o
-2 3 4 0.020 0.163 0.122 205.041 o
-2 3 5 80.215 81.969 0.795 0.350 o
-2 3 6 0.159 0.265 0.183 90.322 o
-2 3 7 4.525 4.290 0.173 38.223 o
-2 3 8 1.740 1.763 0.153 82.314 o
-2 3 9 5.624 5.319 0.122 36.122 o
-2 3 10 1.359 1.365 0.092 162.297 o
-2 3 11 0.006 0.071 0.143 153.716 o
-2 3 12 0.207 0.397 0.132 162.814 o
-2 4 -1 107.424 99.517 4.341 0.096 o
-2 4 0 0.134 0.122 0.092 340.388 o
-2 4 1 42.855 40.822 0.968 0.942 o
-2 4 2 5.122 4.942 0.132 38.899 o
-2 4 3 112.740 116.585 2.160 0.150 o
-2 4 4 15.952 16.335 0.550 4.396 o
-2 4 5 0.008 0.061 0.163 117.997 o
-2 4 6 24.831 24.670 0.724 2.219 o
-2 4 7 0.203 0.173 0.132 167.527 o
-2 4 8 2.555 2.558 0.102 90.752 o
-2 4 9 4.560 4.341 0.092 51.185 o
-2 4 10 0.028 0.071 0.143 153.018 o
-2 4 11 0.920 1.009 0.102 179.195 o
-2 4 12 0.169 0.132 0.163 114.247 o
-2 5 -1 11.802 11.250 0.642 4.858 o
-2 5 0 4.759 4.922 0.204 31.390 o
-2 5 1 21.135 20.869 0.438 3.665 o
-2 5 2 80.035 76.834 0.713 0.370 o
-2 5 3 2.001 1.926 0.234 43.591 o
-2 5 4 125.885 125.971 3.536 0.097 o
-2 5 5 2.713 2.772 0.214 43.562 o
-2 5 6 2.308 2.395 0.316 25.983 o
-2 5 7 2.706 2.619 0.194 49.763 o
-2 5 8 8.561 8.947 0.275 14.168 o
-2 5 9 2.264 2.058 0.071 125.803 o
-2 5 10 1.495 1.355 0.102 141.680 o
-2 5 11 0.006 0.082 0.173 104.479 o
-2 5 12 0.051 0.102 0.153 132.584 o
-2 6 -1 0.004 0.082 0.132 177.899 o
-2 6 0 5.022 5.024 0.112 41.855 o
-2 6 1 0.356 0.397 0.092 287.727 o
-2 6 2 59.593 59.439 2.486 0.291 o
-2 6 3 1.465 1.202 0.102 146.263 o
-2 6 4 3.218 3.179 0.214 40.008 o
-2 6 5 0.023 0.132 0.153 132.878 o
-2 6 6 7.608 7.592 0.153 22.212 o
-2 6 7 0.245 0.275 0.112 220.854 o
-2 6 8 0.140 0.194 0.112 231.832 o
-2 6 9 0.004 0.102 0.143 153.283 o
-2 6 10 1.969 1.865 0.153 78.168 o
-2 6 11 0.245 0.265 0.122 189.497 o
-2 6 12 0.015 0.061 0.132 177.889 o
-2 7 -1 26.872 26.005 0.611 2.261 o
-2 7 0 71.281 69.711 0.754 0.448 o
-2 7 1 37.260 36.868 0.999 1.090 o
-2 7 2 12.617 12.075 0.367 7.868 o
-2 7 3 60.848 58.573 2.109 0.344 o
-2 7 4 5.095 5.064 0.132 38.702 o
-2 7 5 12.094 11.841 0.357 8.340 o
-2 7 6 0.074 0.041 0.153 132.766 o
-2 7 7 1.031 1.111 0.132 122.628 o
-2 7 8 3.356 2.976 0.214 39.839 o
-2 7 9 1.621 1.773 0.255 39.917 o
-2 7 10 0.021 0.051 0.163 117.850 o
-2 7 11 0.254 0.265 0.102 260.187 o
-2 8 -1 6.568 6.348 0.132 28.610 o
-2 8 0 0.064 0.031 0.112 244.486 o
-2 8 1 4.814 4.769 0.122 42.821 o
-2 8 2 6.691 6.573 0.132 27.730 o
-2 8 3 3.029 2.894 0.122 70.188 o
-2 8 4 0.058 0.326 0.143 147.981 o
-2 8 5 9.311 9.589 0.234 14.206 o
-2 8 6 6.224 6.073 0.132 30.540 o
-2 8 7 4.431 4.117 0.102 51.830 o
-2 8 8 0.584 0.642 0.092 247.504 o
-2 8 9 0.124 0.194 0.153 129.665 o
-2 8 10 0.516 0.479 0.102 226.284 o
-2 8 11 0.018 0.061 0.163 117.817 o
-2 9 -1 26.876 27.075 0.571 2.298 o
-2 9 0 16.683 16.865 0.428 5.019 o
-2 9 1 43.293 44.623 1.620 0.606 o
-2 9 2 14.779 14.796 0.540 4.853 o
-2 9 3 0.244 0.265 0.122 189.535 o
-2 9 4 2.584 2.384 0.173 58.535 o
-2 9 5 0.650 0.734 0.132 140.378 o
-2 9 6 0.000 0.122 0.163 117.567 o
-2 9 7 1.699 1.814 0.132 97.347 o
-2 9 8 0.006 0.102 0.163 117.645 o
-2 9 9 0.122 0.285 0.204 73.897 o
-2 9 10 0.018 0.092 0.173 104.216 o
-2 10 -1 3.366 3.475 0.132 59.008 o
-2 10 0 0.393 0.581 0.214 64.433 o
-2 10 1 3.228 3.271 0.132 61.673 o
-2 10 2 0.062 0.061 0.204 75.268 o
-2 10 3 3.606 3.556 0.143 53.429 o
-2 10 4 5.256 5.625 0.224 26.329 o
-2 10 5 2.595 2.476 0.204 47.876 o
-2 10 6 7.412 7.011 0.448 10.121 o
-2 10 7 1.970 1.834 0.183 62.440 o
-2 10 8 0.909 0.887 0.092 207.358 o
-2 10 9 0.462 0.387 0.234 54.433 o
-2 10 10 0.050 0.132 0.173 103.435 o
-2 11 -1 2.524 2.446 0.143 71.701 o
-2 11 0 15.160 15.367 1.243 1.641 o
-2 11 1 4.260 4.158 0.357 17.931 o
-2 11 2 3.629 3.658 0.153 50.229 o
-2 11 3 0.048 0.204 0.112 238.687 o
-2 11 4 0.333 0.306 0.153 123.370 o
-2 11 5 0.759 0.836 0.183 79.990 o
-2 11 6 0.128 0.112 0.163 115.232 o
-2 11 7 0.252 0.326 0.122 187.474 o
-2 11 8 0.321 0.183 0.132 162.531 o
-2 11 9 0.467 0.479 0.204 70.376 o
-2 12 -1 2.039 2.293 0.122 92.521 o
-2 12 0 0.192 0.397 0.122 188.784 o
-2 12 1 0.052 0.051 0.163 117.248 o
-2 12 2 4.570 4.402 0.132 44.284 o
-2 12 3 3.337 3.179 0.173 49.136 o
-2 12 4 0.287 0.428 0.183 87.835 o
-2 12 5 3.545 3.485 0.255 30.748 o
-2 12 6 0.687 0.652 0.102 206.280 o
-2 12 7 0.958 0.958 0.122 141.822 o
-2 12 8 0.182 0.285 0.173 100.313 o
-2 12 9 0.312 0.296 0.122 185.136 o
-2 13 -1 0.387 0.275 0.122 181.795 o
-2 13 0 1.381 1.355 0.122 120.930 o
-2 13 1 0.488 0.418 0.112 199.411 o
-2 13 2 0.014 0.031 0.112 248.675 o
-2 13 3 0.067 0.061 0.194 83.255 o
-2 13 4 2.208 2.293 0.132 82.995 o
-2 13 5 0.004 0.102 0.163 117.689 o
-2 13 6 0.006 0.112 0.173 104.245 o
-2 13 7 0.113 0.224 0.122 197.877 o
-2 13 8 0.989 1.009 0.163 92.255 o
-2 14 -1 1.769 1.804 0.132 95.982 o
-2 14 0 0.152 0.194 0.143 147.086 o
-2 14 1 0.437 0.571 0.122 172.028 o
-2 14 2 1.636 1.692 0.112 118.836 o
-2 14 3 1.325 1.284 0.122 123.751 o
-2 14 4 1.251 1.141 0.102 157.671 o
-2 14 5 0.020 0.061 0.163 117.777 o
-2 14 6 0.041 0.143 0.143 151.445 o
-2 15 -1 0.177 0.020 0.082 422.393 o
-2 15 0 0.485 0.459 0.132 151.018 o
-2 15 1 0.248 0.357 0.122 186.888 o
-2 15 2 0.449 0.459 0.132 152.354 o
-2 15 3 0.643 0.622 0.122 161.442 o
-2 15 4 0.019 0.051 0.153 133.998 o
-2 15 5 0.304 0.316 0.112 215.161 o
-2 16 -1 0.366 0.489 0.112 205.007 o
-2 16 0 0.041 0.143 0.173 103.488 o
-2 16 1 0.278 0.306 0.143 141.489 o
-2 16 2 0.198 0.194 0.143 145.662 o
-1 0 1 664.869 684.493 4.575 0.006 o
-1 0 3 7.379 7.347 0.204 20.425 o
-1 0 5 114.676 115.363 0.856 0.182 o
-1 0 7 2.328 2.171 0.153 71.227 o
-1 0 9 3.075 2.976 0.194 46.212 o
-1 0 11 0.002 0.163 0.194 83.392 o
-1 0 13 0.200 0.326 0.173 99.748 o
-1 1 0 804.467 700.583 29.327 0.002 o
-1 1 1 341.161 332.464 6.287 0.018 o
-1 1 2 335.323 320.378 6.766 0.018 o
-1 1 3 16.126 16.284 0.275 6.372 o
-1 1 4 69.791 68.916 0.581 0.478 o
-1 1 5 24.632 24.171 0.306 3.244 o
-1 1 6 62.775 61.844 0.927 0.530 o
-1 1 7 43.329 42.901 3.454 0.218 o
-1 1 8 7.894 7.989 0.153 21.009 o
-1 1 9 0.476 0.591 0.132 148.938 o
-1 1 10 0.715 0.673 0.112 178.446 o
-1 1 11 1.587 1.529 0.122 112.536 o
-1 1 12 0.790 0.744 0.122 152.595 o
-1 1 13 0.074 0.051 0.163 116.844 o
-1 2 0 87.486 80.237 5.778 0.074 o
-1 2 1 3.183 3.342 0.092 75.246 o
-1 2 2 48.330 50.513 1.478 0.585 o
-1 2 3 2.870 2.894 0.204 45.011 o
-1 2 4 83.754 87.085 4.443 0.109 o
-1 2 5 9.592 9.711 0.153 15.997 o
-1 2 6 18.952 19.382 0.438 4.184 o
-1 2 7 4.474 4.198 0.428 13.453 o
-1 2 8 2.728 2.660 0.214 43.779 o
-1 2 9 8.653 8.458 0.632 5.808 o
-1 2 10 1.226 1.162 0.183 73.090 o
-1 2 11 0.704 0.764 0.112 176.560 o
-1 2 12 0.096 0.153 0.173 102.585 o
-1 3 0 348.138 317.984 5.870 0.018 o
-1 3 1 243.946 235.525 4.463 0.035 o
-1 3 2 74.015 75.417 2.364 0.248 o
-1 3 3 196.320 193.215 3.597 0.053 o
-1 3 4 36.468 37.204 0.397 1.565 o
-1 3 5 50.747 50.778 0.836 0.765 o
-1 3 6 29.406 27.931 1.111 1.301 o
-1 3 7 6.236 6.165 0.571 7.656 o
-1 3 8 10.067 8.876 0.377 9.949 o
-1 3 9 0.005 0.194 0.112 242.652 o
-1 3 10 0.416 0.459 0.112 202.701 o
-1 3 11 0.228 0.173 0.143 145.042 o
-1 3 12 0.143 0.204 0.132 169.375 o
-1 4 0 0.417 0.408 0.061 476.571 o
-1 4 1 5.043 4.922 0.092 44.526 o
-1 4 2 44.810 45.856 1.406 0.668 o
-1 4 3 6.801 6.858 0.112 28.015 o
-1 4 4 14.940 15.214 0.346 6.452 o
-1 4 5 4.892 5.095 0.092 45.024 o
-1 4 6 0.169 0.102 0.153 129.693 o
-1 4 7 3.160 3.006 0.499 11.231 o
-1 4 8 20.063 19.484 2.609 0.426 o
-1 4 9 4.722 4.596 0.336 18.599 o
-1 4 10 6.832 6.491 0.183 24.017 o
-1 4 11 0.365 0.265 0.132 159.186 o
-1 4 12 0.005 0.132 0.153 133.329 o
-1 5 0 2.600 2.863 0.122 76.913 o
-1 5 1 0.001 0.092 0.092 366.469 o
-1 5 2 108.376 107.425 3.424 0.119 o
-1 5 3 72.117 74.398 1.488 0.348 o
-1 5 4 55.004 54.874 0.520 0.741 o
-1 5 5 0.113 0.153 0.102 281.279 o
-1 5 6 0.246 0.296 0.092 309.694 o
-1 5 7 12.062 12.157 0.754 3.836 o
-1 5 8 0.491 2.395 1.773 1.001 o
-1 5 9 0.395 0.255 0.143 138.746 o
-1 5 10 0.116 0.102 0.163 115.551 o
-1 5 11 0.057 0.234 0.153 130.800 o
-1 5 12 0.030 0.092 0.183 92.912 o
-1 6 0 45.066 44.276 2.344 0.385 o
-1 6 1 36.394 37.968 1.284 0.895 o
-1 6 2 15.676 15.092 0.397 5.776 o
-1 6 3 0.018 0.978 0.673 6.943 o
-1 6 4 0.429 0.499 0.092 272.509 o
-1 6 5 11.903 12.075 0.234 10.367 o
-1 6 6 10.755 10.516 0.662 4.894 o
-1 6 7 4.020 4.198 0.143 47.268 o
-1 6 8 6.821 6.929 0.224 20.875 o
-1 6 9 10.180 10.261 0.285 11.569 o
-1 6 10 1.588 1.529 0.132 102.962 o
-1 6 11 0.386 0.469 0.132 154.518 o
-1 6 12 0.314 0.326 0.143 140.106 o
-1 7 0 4.375 4.524 0.245 28.182 o
-1 7 1 0.168 0.122 0.122 197.690 o
-1 7 2 9.040 9.242 0.275 13.463 o
-1 7 3 27.022 26.973 0.601 2.233 o
-1 7 4 1.780 1.793 0.102 122.509 o
-1 7 5 0.008 0.122 0.143 152.822 o
-1 7 6 2.968 2.965 0.102 78.570 o
-1 7 7 6.520 6.440 0.265 19.371 o
-1 7 8 1.073 0.978 0.092 191.834 o
-1 7 9 0.002 0.000 0.041 1891.400 o
-1 7 10 0.019 0.071 0.194 83.679 o
-1 7 11 0.946 0.897 0.194 70.865 o
-1 8 0 3.545 3.454 0.346 20.022 o
-1 8 1 63.398 63.189 3.353 0.192 o
-1 8 2 7.043 7.255 0.265 17.821 o
-1 8 3 2.273 2.191 0.092 108.799 o
-1 8 4 5.646 5.635 0.132 34.173 o
-1 8 5 15.326 15.734 0.540 4.646 o
-1 8 6 1.155 1.009 0.102 166.028 o
-1 8 7 8.271 8.101 0.234 16.676 o
-1 8 8 2.414 2.711 0.275 31.706 o
-1 8 9 0.950 1.172 0.224 54.288 o
-1 8 10 0.483 0.489 0.122 171.798 o
-1 8 11 0.466 0.673 0.122 168.286 o
-1 9 0 25.463 25.292 1.131 1.422 o
-1 9 1 0.887 0.937 0.153 104.545 o
-1 9 2 0.191 0.194 0.112 227.925 o
-1 9 3 3.494 3.414 0.102 66.755 o
-1 9 4 0.060 0.173 0.173 102.969 o
-1 9 5 3.289 3.220 0.143 58.113 o
-1 9 6 8.104 7.541 0.306 14.341 o
-1 9 7 0.455 0.479 0.092 270.639 o
-1 9 8 1.561 1.437 0.102 137.265 o
-1 9 9 0.050 0.010 0.082 458.340 o
-1 9 10 0.916 1.029 0.122 142.076 o
-1 9 11 0.106 0.194 0.194 82.236 o
-1 10 0 27.102 27.707 1.743 0.768 o
-1 10 1 3.653 3.577 0.102 63.521 o
-1 10 2 14.562 14.552 0.560 4.758 o
-1 10 3 0.095 0.245 0.153 129.748 o
-1 10 4 4.462 4.759 0.153 40.517 o
-1 10 5 1.901 1.895 0.234 44.109 o
-1 10 6 7.849 7.541 0.408 10.943 o
-1 10 7 0.039 0.204 0.143 150.529 o
-1 10 8 0.170 0.234 0.112 227.932 o
-1 10 9 0.000 0.041 0.122 209.849 o
-1 10 10 0.004 0.183 0.132 175.669 o
-1 11 0 0.195 0.224 0.132 166.804 o
-1 11 1 2.727 2.731 0.112 80.566 o
-1 11 2 12.425 13.054 0.408 7.174 o
-1 11 3 0.027 0.051 0.183 93.186 o
-1 11 4 13.045 12.401 0.764 3.648 o
-1 11 5 1.979 1.936 0.112 105.495 o
-1 11 6 0.976 0.887 0.092 202.175 o
-1 11 7 2.168 2.089 0.102 106.061 o
-1 11 8 0.003 0.020 0.071 613.480 o
-1 11 9 0.091 0.224 0.122 199.161 o
-1 12 0 0.400 0.357 0.092 284.724 o
-1 12 1 7.591 7.317 0.122 24.065 o
-1 12 2 0.036 0.020 0.092 366.503 o
-1 12 3 0.022 0.082 0.194 83.596 o
-1 12 4 0.162 0.082 0.153 130.113 o
-1 12 5 3.184 3.016 0.122 67.204 o
-1 12 6 0.057 0.112 0.173 103.474 o
-1 12 7 0.036 0.102 0.163 117.083 o
-1 12 8 0.186 0.194 0.122 194.650 o
-1 12 9 0.359 0.418 0.102 242.700 o
-1 13 0 0.610 0.438 0.092 255.524 o
-1 13 1 3.598 3.505 0.224 35.606 o
-1 13 2 0.000 0.061 0.132 178.524 o
-1 13 3 14.597 14.164 0.713 3.697 o
-1 13 4 0.052 0.112 0.183 92.521 o
-1 13 5 3.286 3.006 0.132 62.533 o
-1 13 6 0.371 0.418 0.132 156.020 o
-1 13 7 0.015 0.112 0.163 117.379 o
-1 13 8 0.001 0.092 0.153 133.944 o
-1 14 0 0.126 0.204 0.132 170.074 o
-1 14 1 0.697 0.642 0.092 236.351 o
-1 14 2 0.326 0.367 0.102 248.132 o
-1 14 3 0.102 0.326 0.132 168.533 o
-1 14 4 0.329 0.357 0.132 158.816 o
-1 14 5 0.196 0.204 0.163 113.075 o
-1 14 6 0.009 0.153 0.173 103.898 o
-1 14 7 0.001 0.102 0.163 117.747 o
-1 15 0 0.005 0.132 0.163 117.371 o
-1 15 1 0.131 0.112 0.173 102.372 o
-1 15 2 4.061 4.209 0.112 53.065 o
-1 15 3 0.010 0.041 0.163 118.162 o
-1 15 4 3.148 3.088 0.143 60.281 o
-1 15 5 0.001 0.061 0.183 93.438 o
-1 16 0 0.749 0.693 0.102 200.417 o
-1 16 1 0.002 0.071 0.163 118.019 o
-1 16 2 0.673 0.611 0.112 182.465 o
-1 16 3 0.012 0.183 0.132 175.341 o
0 0 2 1002.240 954.735 6.185 0.003 o
0 0 4 16.509 16.457 0.459 4.899 o
0 0 6 1.921 1.977 0.143 84.323 o
0 0 8 1.589 1.549 0.163 79.375 o
0 0 10 3.792 3.750 0.173 44.069 o
0 0 12 3.349 3.383 0.194 43.349 o
0 1 1 45.443 49.157 1.549 0.593 o
0 1 2 431.409 432.602 10.822 0.009 o
0 1 3 6.629 6.145 0.306 17.004 o
0 1 4 1.493 1.498 0.071 180.928 o
0 1 5 33.153 32.690 0.479 1.800 o
0 1 6 19.647 20.024 0.316 4.521 o
0 1 7 6.771 6.542 0.397 12.369 o
0 1 8 0.837 0.907 0.122 147.421 o
0 1 9 0.686 0.815 0.275 38.943 o
0 1 10 3.967 3.801 0.122 53.792 o
0 1 11 0.555 0.611 0.224 58.059 o
0 1 12 0.102 0.173 0.173 102.351 o
0 2 0 1.886 2.160 0.061 148.635 o
0 2 1 2047.770 1990.080 90.336 0.000 o
0 2 2 42.032 41.117 1.865 0.540 o
0 2 3 0.041 0.061 0.082 453.800 o
0 2 4 58.831 57.656 1.641 0.440 o
0 2 5 2.740 2.843 0.102 83.952 o
0 2 6 0.082 0.051 0.153 132.448 o
0 2 7 4.293 4.372 0.408 14.577 o
0 2 8 7.567 7.266 0.937 3.175 o
0 2 9 0.120 0.204 0.112 232.956 o
0 2 10 0.995 0.948 0.122 140.650 o
0 2 11 3.350 3.485 0.234 34.777 o
0 2 12 0.004 0.051 0.163 118.178 o
0 3 1 324.725 314.784 5.217 0.021 o
0 3 2 11.003 11.444 0.479 6.997 o
0 3 3 257.849 255.202 12.799 0.013 o
0 3 4 6.381 6.287 0.459 10.526 o
0 3 5 0.011 0.112 0.102 295.678 o
0 3 6 2.394 2.191 0.194 53.453 o
0 3 7 0.611 0.540 0.112 188.128 o
0 3 8 0.112 0.285 0.183 90.765 o
0 3 9 9.726 9.701 0.642 5.362 o
0 3 10 0.017 0.163 0.132 175.564 o
0 3 11 1.398 1.416 0.122 119.505 o
0 3 12 0.085 0.194 0.163 115.271 o
0 4 0 345.769 329.753 1.783 0.022 o
0 4 1 17.609 18.087 0.499 4.241 o
0 4 2 26.582 26.087 1.162 1.337 o
0 4 3 77.699 76.528 3.750 0.145 o
0 4 4 1.393 0.581 0.183 74.410 o
0 4 5 14.722 15.030 0.927 2.587 o
0 4 6 2.363 2.211 0.153 70.523 o
0 4 7 13.553 12.656 1.365 1.460 o
0 4 8 1.092 1.019 0.489 12.752 o
0 4 9 7.294 7.001 0.377 12.574 o
0 4 10 0.263 0.265 0.122 188.521 o
0 4 11 0.062 0.071 0.143 151.922 o
0 4 12 0.301 0.316 0.143 140.646 o
0 5 1 32.014 33.098 0.917 1.365 o
0 5 2 239.016 236.391 4.932 0.034 o
0 5 3 15.366 15.041 0.927 2.548 o
0 5 4 48.528 50.401 1.753 0.501 o
0 5 5 5.055 4.922 0.377 15.414 o
0 5 6 4.535 4.616 0.163 38.897 o
0 5 7 2.814 2.690 0.153 62.438 o
0 5 8 10.498 10.954 1.080 2.300 o
0 5 9 0.069 0.031 0.132 176.199 o
0 5 10 4.184 4.310 0.153 43.715 o
0 5 11 0.030 0.122 0.173 103.808 o
0 5 12 0.001 0.112 0.163 117.653 o
0 6 0 43.367 44.490 0.825 0.966 o
0 6 1 0.148 0.163 0.071 517.011 o
0 6 2 3.619 3.363 0.112 62.562 o
0 6 3 1.169 1.213 0.092 177.768 o
0 6 4 36.137 38.019 1.294 0.892 o
0 6 5 4.017 4.025 0.245 29.986 o
0 6 6 0.942 0.897 0.112 161.065 o
0 6 7 1.209 1.304 0.132 115.072 o
0 6 8 9.672 9.630 0.367 10.205 o
0 6 9 0.140 0.020 0.082 432.185 o
0 6 10 0.323 0.357 0.194 79.348 o
0 6 11 0.073 0.275 0.183 91.296 o
0 6 12 0.111 0.071 0.204 74.836 o
0 7 1 22.659 23.712 0.469 3.138 o
0 7 2 26.162 26.647 0.683 2.147 o
0 7 3 43.696 44.297 1.671 0.585 o
0 7 4 4.876 4.901 0.459 11.665 o
0 7 5 13.116 13.543 0.601 4.791 o
0 7 6 23.188 23.448 1.335 1.221 o
0 7 7 8.406 8.723 0.510 7.855 o
0 7 8 1.302 1.253 0.143 102.954 o
0 7 9 3.999 4.107 0.163 43.672 o
0 7 10 0.341 0.183 0.153 124.618 o
0 7 11 0.134 0.275 0.122 195.282 o
0 8 0 25.527 26.341 0.530 2.528 o
0 8 1 22.482 22.765 0.336 3.618 o
0 8 2 1.172 1.192 0.082 197.955 o
0 8 3 2.309 2.364 0.092 105.244 o
0 8 4 7.791 7.785 0.448 9.729 o
0 8 5 0.765 0.856 0.122 151.321 o
0 8 6 1.595 1.641 0.132 101.531 o
0 8 7 2.738 2.762 0.245 36.428 o
0 8 8 0.002 0.031 0.132 179.128 o
0 8 9 0.253 0.214 0.132 164.633 o
0 8 10 0.238 0.408 0.285 37.838 o
0 8 11 0.372 0.510 0.122 176.688 o
0 9 1 5.340 5.605 0.122 36.906 o
0 9 2 1.470 1.559 0.092 151.607 o
0 9 3 0.008 0.122 0.153 133.378 o
0 9 4 4.105 4.331 0.173 40.426 o
0 9 5 22.251 22.857 1.376 1.194 o
0 9 6 5.310 5.238 0.132 36.973 o
0 9 7 8.433 8.366 0.163 19.000 o
0 9 8 1.883 1.957 0.122 99.666 o
0 9 9 0.028 0.031 0.112 247.507 o
0 9 10 0.059 0.071 0.204 75.247 o
0 10 0 25.800 26.576 0.611 2.322 o
0 10 1 6.347 6.603 0.316 16.508 o
0 10 2 8.144 8.162 0.224 17.256 o
0 10 3 5.469 5.870 0.296 19.562 o
0 10 4 0.322 0.285 0.112 214.943 o
0 10 5 5.018 4.759 0.132 40.094 o
0 10 6 0.268 0.224 0.153 125.847 o
0 10 7 0.118 0.041 0.153 131.692 o
0 10 8 0.004 0.082 0.183 93.285 o
0 10 9 0.060 0.041 0.163 117.208 o
0 10 10 0.525 0.683 0.132 145.555 o
0 11 1 1.390 1.325 0.132 110.169 o
0 11 2 0.812 0.887 0.112 167.693 o
0 11 3 1.186 1.060 0.112 146.538 o
0 11 4 3.867 4.056 0.102 58.031 o
0 11 5 0.861 0.897 0.112 165.023 o
0 11 6 6.587 6.766 0.336 15.085 o
0 11 7 0.872 0.958 0.112 162.999 o
0 11 8 0.185 0.224 0.153 127.835 o
0 11 9 0.011 0.194 0.132 175.152 o
0 12 0 1.368 1.406 0.173 76.544 o
0 12 1 6.355 6.073 0.234 22.133 o
0 12 2 1.198 1.019 0.082 202.692 o
0 12 3 3.714 3.414 0.102 63.785 o
0 12 4 6.236 6.124 0.112 31.914 o
0 12 5 0.781 0.632 0.092 228.930 o
0 12 6 0.051 0.143 0.194 83.016 o
0 12 7 0.100 0.255 0.132 170.087 o
0 12 8 0.678 0.683 0.132 140.283 o
0 13 1 0.106 0.041 0.143 150.997 o
0 13 2 4.300 4.025 0.102 53.563 o
0 13 3 0.014 0.102 0.153 133.492 o
0 13 4 0.353 0.224 0.112 214.954 o
0 13 5 0.612 0.693 0.102 210.327 o
0 13 6 0.411 0.346 0.132 155.868 o
0 13 7 0.034 0.051 0.173 104.283 o
0 13 8 0.005 0.041 0.153 134.467 o
0 14 0 0.235 0.173 0.194 81.086 o
0 14 1 0.459 0.632 0.245 49.731 o
0 14 2 1.215 1.182 0.092 175.869 o
0 14 3 2.945 2.986 0.102 78.797 o
0 14 4 1.719 1.447 0.183 66.638 o
0 14 5 0.561 0.469 0.112 193.271 o
0 14 6 0.013 0.031 0.132 178.616 o
0 14 7 0.356 0.316 0.122 182.357 o
0 15 1 0.914 0.887 0.183 77.973 o
0 15 2 0.000 0.204 0.132 175.405 o
0 15 3 1.032 1.050 0.102 171.600 o
0 15 4 0.050 0.163 0.132 174.135 o
0 15 5 0.082 0.102 0.143 150.764 o
0 16 0 0.507 0.408 0.194 77.322 o
0 16 1 0.123 0.163 0.173 102.100 o
0 16 2 0.746 0.774 0.132 136.502 o
0 16 3 0.463 0.408 0.183 85.879 o
1 0 1 0.063 0.194 0.061 710.639 o
1 0 3 191.539 197.342 1.386 0.065 o
1 0 5 0.720 0.734 0.122 155.695 o
1 0 7 5.470 5.819 0.194 28.390 o
1 0 9 2.086 2.221 0.163 68.858 o
1 0 11 2.999 3.312 0.183 48.328 o
1 1 1 788.417 762.437 28.879 0.002 o
1 1 2 58.047 58.654 3.913 0.160 o
1 1 3 0.020 0.031 0.092 368.662 o
1 1 4 37.944 39.202 0.724 1.241 o
1 1 5 62.305 63.301 0.948 0.524 o
1 1 6 31.053 31.844 1.019 1.304 o
1 1 7 4.118 3.954 0.132 49.544 o
1 1 8 4.482 4.392 0.377 16.203 o
1 1 9 0.029 0.082 0.204 75.445 o
1 1 10 1.250 1.192 0.153 95.226 o
1 1 11 0.450 0.479 0.122 173.592 o
1 1 12 0.454 0.560 0.132 150.277 o
1 2 1 201.923 186.021 6.348 0.036 o
1 2 2 247.522 239.020 8.560 0.021 o
1 2 3 241.384 240.233 10.333 0.018 o
1 2 4 49.831 52.306 1.702 0.500 o
1 2 5 12.608 12.738 0.214 9.856 o
1 2 6 2.766 2.925 0.346 21.351 o
1 2 7 1.174 1.121 0.143 107.211 o
1 2 8 0.003 0.010 0.092 373.762 o
1 2 9 0.125 0.071 0.194 82.651 o
1 2 10 2.750 2.772 0.132 70.868 o
1 2 11 0.002 0.265 0.214 68.055 o
1 2 12 0.495 0.438 0.122 172.449 o
1 3 1 2.948 2.935 0.143 63.353 o
1 3 2 146.775 142.672 0.815 0.117 o
1 3 3 6.061 6.084 0.153 29.515 o
1 3 4 27.725 28.115 0.978 1.524 o
1 3 5 9.214 9.518 0.357 10.813 o
1 3 6 7.034 6.868 0.591 6.967 o
1 3 7 10.081 10.047 0.693 4.730 o
1 3 8 2.929 3.026 0.489 11.736 o
1 3 9 4.220 4.259 0.296 23.161 o
1 3 10 0.347 0.357 0.173 97.362 o
1 3 11 0.651 0.774 0.122 157.772 o
1 3 12 0.377 0.459 0.122 177.688 o
1 4 1 56.094 55.057 1.151 0.582 o
1 4 2 304.600 288.697 3.424 0.026 o
1 4 3 113.844 112.469 2.772 0.132 o
1 4 4 106.945 105.040 2.670 0.147 o
1 4 5 8.634 8.774 0.632 5.781 o
1 4 6 0.266 0.132 0.163 112.425 o
1 4 7 0.185 0.041 0.122 199.011 o
1 4 8 1.763 1.875 0.234 44.787 o
1 4 9 0.587 0.662 0.112 185.915 o
1 4 10 0.008 0.102 0.183 93.108 o
1 4 11 0.162 0.418 0.275 40.798 o
1 4 12 0.040 0.122 0.173 103.662 o
1 5 1 114.026 113.844 1.396 0.172 o
1 5 2 17.534 18.139 0.673 3.338 o
1 5 3 1.097 1.090 0.092 186.376 o
1 5 4 2.672 2.762 0.132 72.041 o
1 5 5 4.717 5.299 0.346 17.455 o
1 5 6 0.005 0.102 0.153 133.711 o
1 5 7 2.546 2.711 0.459 13.418 o
1 5 8 3.472 3.567 0.122 60.251 o
1 5 9 3.041 3.190 0.102 75.384 o
1 5 10 0.999 1.121 0.122 137.360 o
1 5 11 0.005 0.082 0.194 83.763 o
1 6 1 38.753 37.551 1.814 0.595 o
1 6 2 53.880 53.957 2.160 0.371 o
1 6 3 127.545 125.634 4.524 0.078 o
1 6 4 24.894 24.803 2.048 0.619 o
1 6 5 5.031 4.983 0.296 21.037 o
1 6 6 7.481 7.602 0.591 6.773 o
1 6 7 3.041 3.220 0.336 21.812 o
1 6 8 0.940 0.978 0.112 159.246 o
1 6 9 0.012 0.224 0.132 174.478 o
1 6 10 0.048 0.275 0.173 102.393 o
1 6 11 0.087 0.020 0.092 357.242 o
1 7 1 44.262 44.174 2.364 0.384 o
1 7 2 5.909 6.043 0.448 11.185 o
1 7 3 0.448 0.397 0.102 235.634 o
1 7 4 0.051 0.214 0.112 238.091 o
1 7 5 15.309 15.377 0.438 5.499 o
1 7 6 0.519 0.571 0.153 116.131 o
1 7 7 0.214 0.255 0.153 126.768 o
1 7 8 1.676 1.610 0.122 109.053 o
1 7 9 0.645 0.693 0.163 100.565 o
1 7 10 0.065 0.092 0.234 56.960 o
1 7 11 0.008 0.102 0.173 104.291 o
1 8 1 41.314 41.362 2.191 0.443 o
1 8 2 19.404 20.064 1.641 0.962 o
1 8 3 10.601 10.863 0.815 3.623 o
1 8 4 7.355 7.347 0.367 12.769 o
1 8 5 10.705 10.903 0.520 6.584 o
1 8 6 1.152 1.223 0.132 117.709 o
1 8 7 5.064 4.881 0.336 17.978 o
1 8 8 0.209 0.183 0.132 167.045 o
1 8 9 0.001 0.031 0.112 249.821 o
1 8 10 0.324 0.397 0.122 181.904 o
1 9 1 0.223 0.153 0.163 113.052 o
1 9 2 7.437 7.011 0.448 10.108 o
1 9 3 0.172 0.071 0.204 74.350 o
1 9 4 11.911 12.493 0.438 7.067 o
1 9 5 0.326 0.153 0.173 99.155 o
1 9 6 7.089 6.909 0.143 25.195 o
1 9 7 0.025 0.112 0.163 117.194 o
1 9 8 0.002 0.102 0.173 104.387 o
1 9 9 0.123 0.143 0.173 102.252 o
1 9 10 0.000 0.010 0.051 1205.290 o
1 10 1 0.663 0.734 0.112 179.585 o
1 10 2 1.317 1.467 0.194 64.975 o
1 10 3 0.050 0.214 0.143 150.011 o
1 10 4 0.712 0.846 0.132 136.435 o
1 10 5 0.387 0.448 0.112 204.963 o
1 10 6 4.918 4.901 0.204 30.836 o
1 10 7 0.133 0.357 0.234 56.042 o
1 10 8 0.691 0.713 0.194 74.112 o
1 10 9 0.225 0.265 0.122 190.570 o
1 11 1 8.069 7.958 0.540 7.492 o
1 11 2 0.251 0.459 0.132 159.887 o
1 11 3 0.471 0.591 0.102 225.372 o
1 11 4 0.203 0.183 0.122 194.015 o
1 11 5 5.386 5.554 0.143 34.610 o
1 11 6 0.015 0.173 0.132 175.424 o
1 11 7 0.474 0.377 0.122 174.932 o
1 11 8 1.137 1.253 0.153 96.724 o
1 11 9 0.001 0.102 0.173 104.401 o
1 12 1 0.343 0.387 0.112 209.976 o
1 12 2 1.446 1.559 0.112 127.197 o
1 12 3 1.446 1.335 0.153 90.520 o
1 12 4 0.869 1.060 0.102 180.727 o
1 12 5 0.263 0.306 0.204 72.694 o
1 12 6 0.003 0.082 0.173 104.525 o
1 12 7 1.129 1.274 0.122 130.243 o
1 12 8 0.207 0.153 0.183 90.419 o
1 13 1 0.421 0.438 0.112 203.089 o
1 13 2 0.122 0.143 0.173 102.269 o
1 13 3 0.015 0.051 0.173 104.567 o
1 13 4 0.424 0.530 0.122 173.637 o
1 13 5 0.047 0.082 0.224 62.332 o
1 13 6 0.117 0.204 0.163 114.555 o
1 13 7 0.772 0.836 0.153 107.893 o
1 14 1 0.089 0.092 0.183 92.196 o
1 14 2 1.513 1.478 0.112 126.310 o
1 14 3 0.928 0.978 0.122 142.577 o
1 14 4 0.619 0.611 0.173 91.618 o
1 14 5 0.002 0.112 0.183 93.127 o
1 14 6 0.156 0.367 0.255 47.519 o
1 15 1 0.104 0.224 0.112 233.409 o
1 15 2 0.221 0.234 0.132 165.520 o
1 15 3 0.000 0.061 0.183 93.453 o
1 15 4 0.062 0.122 0.173 103.330 o
1 15 5 0.110 0.092 0.183 91.953 o
1 16 1 0.270 0.143 0.194 80.892 o
1 16 2 0.040 0.082 0.214 68.406 o
1 16 3 0.435 0.510 0.214 64.391 o
2 0 2 12.083 12.361 0.285 9.323 o
2 0 4 89.585 95.950 1.162 0.262 o
2 0 6 89.740 94.269 1.396 0.251 o
2 0 8 4.535 4.901 0.224 29.640 o
2 0 10 0.215 0.000 0.112 233.566 o
2 0 12 0.007 0.183 0.183 92.638 o
2 1 2 32.123 32.894 2.609 0.381 o
2 1 3 11.383 12.677 0.550 5.768 o
2 1 4 68.864 72.340 2.762 0.226 o
2 1 5 8.607 8.947 0.143 18.756 o
2 1 6 0.542 0.693 0.102 215.644 o
2 1 7 0.347 0.377 0.122 181.219 o
2 1 8 1.489 1.549 0.132 105.034 o
2 1 9 0.466 0.774 0.234 53.499 o
2 1 10 0.064 0.153 0.143 150.525 o
2 1 11 0.575 0.499 0.132 147.024 o
2 1 12 0.161 0.245 0.194 81.460 o
2 2 2 98.647 97.785 4.402 0.100 o
2 2 3 2.227 2.201 0.082 117.238 o
2 2 4 7.599 7.989 0.520 8.053 o
2 2 5 81.834 85.353 4.596 0.105 o
2 2 6 0.003 0.163 0.163 117.114 o
2 2 7 19.168 20.258 1.681 0.925 o
2 2 8 0.439 0.550 0.143 133.145 o
2 2 9 0.017 1.579 1.050 2.855 o
2 2 10 0.191 0.275 0.173 100.261 o
2 2 11 0.046 0.143 0.204 75.069 o
2 3 2 1.661 1.671 0.082 152.156 o
2 3 3 129.917 129.130 7.276 0.043 o
2 3 4 0.007 0.112 0.153 133.544 o
2 3 5 14.576 15.550 0.897 2.703 o
2 3 6 2.055 2.048 0.112 102.095 o
2 3 7 6.223 6.776 0.234 21.651 o
2 3 8 1.994 1.977 0.112 104.559 o
2 3 9 2.441 2.160 0.581 8.788 o
2 3 10 0.629 0.611 0.122 162.271 o
2 3 11 0.001 0.102 0.194 83.707 o
2 4 2 4.864 4.810 0.173 35.220 o
2 4 3 50.756 49.249 0.632 0.839 o
2 4 4 8.889 9.049 0.336 11.815 o
2 4 5 0.080 0.132 0.153 131.483 o
2 4 6 10.596 11.352 0.876 3.222 o
2 4 7 0.011 0.143 0.173 103.938 o
2 4 8 0.557 0.611 0.112 189.167 o
2 4 9 0.940 0.876 0.143 115.578 o
2 4 10 0.000 0.020 0.112 250.320 o
2 4 11 0.005 0.122 0.183 93.032 o
2 5 2 58.257 54.263 2.568 0.291 o
2 5 3 5.513 5.543 0.112 37.129 o
2 5 4 36.333 37.041 1.957 0.556 o
2 5 5 0.750 4.851 3.516 0.255 o
2 5 6 1.149 1.223 0.122 130.414 o
2 5 7 1.968 2.303 0.459 13.788 o
2 5 8 7.088 7.153 0.255 18.381 o
2 5 9 0.553 0.571 0.092 254.486 o
2 5 10 0.815 0.713 0.102 195.165 o
2 5 11 0.017 0.112 0.163 117.344 o
2 6 2 56.888 54.466 0.673 0.686 o
2 6 3 0.013 0.092 0.153 133.630 o
2 6 4 0.540 0.642 0.102 217.783 o
2 6 5 0.076 0.031 0.132 175.873 o
2 6 6 3.084 3.271 0.275 29.236 o
2 6 7 0.028 0.183 0.153 132.136 o
2 6 8 0.075 0.183 0.153 130.998 o
2 6 9 0.087 0.204 0.143 148.998 o
2 6 10 0.267 0.326 0.132 161.863 o
2 6 11 0.145 0.194 0.173 101.546 o
2 7 2 1.974 1.987 0.194 57.398 o
2 7 3 22.691 22.694 0.795 2.257 o
2 7 4 7.239 7.306 0.153 23.592 o
2 7 5 0.718 0.805 0.204 67.106 o
2 7 6 0.005 0.132 0.194 83.517 o
2 7 7 2.671 2.894 0.204 46.169 o
2 7 8 0.420 0.469 0.112 202.150 o
2 7 9 1.358 1.579 0.163 82.386 o
2 7 10 0.181 0.224 0.143 145.719 o
2 8 2 1.191 1.202 0.234 49.029 o
2 8 3 0.588 0.571 0.112 188.537 o
2 8 4 1.628 1.325 0.122 114.206 o
2 8 5 6.036 6.308 0.316 17.099 o
2 8 6 3.055 2.884 0.122 69.879 o
2 8 7 1.574 1.559 0.112 122.904 o
2 8 8 0.002 0.132 0.194 83.540 o
2 8 9 0.060 0.194 0.183 91.942 o
2 8 10 0.389 0.418 0.132 155.348 o
2 9 2 6.115 6.084 0.143 30.149 o
2 9 3 1.202 1.213 0.122 128.815 o
2 9 4 0.341 0.530 0.122 177.718 o
2 9 5 2.062 2.069 0.112 101.662 o
2 9 6 0.058 0.112 0.163 116.565 o
2 9 7 0.040 0.132 0.183 92.550 o
2 9 8 0.061 0.245 0.163 115.234 o
2 9 9 0.089 0.092 0.194 82.897 o
2 10 2 0.739 0.876 0.122 151.947 o
2 10 3 0.910 1.029 0.132 127.387 o
2 10 4 5.105 5.024 0.132 38.761 o
2 10 5 2.101 1.936 0.122 94.996 o
2 10 6 3.643 3.648 0.132 55.261 o
2 10 7 0.382 0.306 0.132 157.752 o
2 10 8 0.239 0.296 0.143 142.824 o
2 10 9 0.383 0.448 0.132 155.011 o
2 11 2 0.808 0.764 0.102 193.962 o
2 11 3 0.149 0.173 0.132 169.769 o
2 11 4 1.457 1.488 0.163 81.638 o
2 11 5 0.067 0.102 0.173 103.409 o
2 11 6 0.096 0.183 0.183 91.568 o
2 11 7 0.388 0.387 0.132 155.967 o
2 11 8 0.003 0.020 0.112 250.110 o
2 12 2 5.098 5.238 0.132 38.172 o
2 12 3 3.846 4.076 0.132 51.370 o
2 12 4 0.161 0.245 0.122 194.627 o
2 12 5 1.947 2.099 0.204 53.265 o
2 12 6 0.200 0.214 0.183 90.135 o
2 12 7 0.390 0.367 0.132 156.273 o
2 12 8 0.142 0.285 0.173 100.914 o
2 13 2 0.055 0.102 0.163 116.706 o
2 13 3 0.126 0.153 0.163 114.884 o
2 13 4 0.660 0.764 0.122 157.606 o
2 13 5 0.081 0.041 0.163 116.806 o
2 13 6 0.188 0.265 0.132 166.268 o
2 13 7 0.001 0.041 0.143 154.397 o
2 14 2 2.162 2.242 0.132 84.231 o
2 14 3 1.796 1.865 0.132 94.787 o
2 14 4 0.601 0.724 0.132 142.205 o
2 14 5 0.075 0.041 0.153 132.727 o
2 15 2 0.110 0.163 0.153 130.391 o
2 15 3 0.329 0.459 0.112 208.486 o
2 15 4 0.000 0.051 0.173 104.799 o
3 0 3 12.871 13.420 0.377 7.312 o
3 0 5 30.270 33.413 0.887 1.455 o
3 0 7 0.312 0.296 0.204 72.344 o
3 0 9 0.570 0.428 0.183 84.498 o
3 0 11 0.000 0.051 0.204 75.792 o
3 1 3 0.327 0.448 0.092 288.267 o
3 1 4 13.598 14.032 0.662 4.181 o
3 1 5 8.792 9.905 0.296 12.745 o
3 1 6 6.855 7.673 0.153 24.165 o
3 1 7 5.351 6.053 0.163 31.484 o
3 1 8 0.040 0.102 0.194 83.323 o
3 1 9 0.054 0.092 0.163 116.834 o
3 1 10 0.744 0.703 0.122 155.352 o
3 1 11 0.395 0.448 0.234 54.607 o
3 2 3 1.213 1.325 0.265 39.376 o
3 2 4 19.926 21.236 0.571 3.301 o
3 2 5 0.066 0.051 0.173 103.809 o
3 2 6 3.244 3.668 0.194 43.130 o
3 2 7 2.595 2.955 0.143 67.457 o
3 2 8 0.765 0.856 0.112 170.877 o
3 2 9 1.494 1.641 0.143 95.075 o
3 2 10 0.193 0.306 0.234 55.879 o
3 2 11 0.021 0.010 0.051 1165.490 o
3 3 3 27.622 28.971 1.539 0.902 o
3 3 4 0.805 0.825 0.173 87.541 o
3 3 5 5.861 6.461 0.265 20.549 o
3 3 6 8.833 10.200 0.652 5.357 o
3 3 7 0.023 0.082 0.143 153.007 o
3 3 8 1.800 1.793 0.214 51.481 o
3 3 9 0.298 0.316 0.122 185.348 o
3 3 10 0.058 0.041 0.163 117.244 o
3 3 11 0.207 0.194 0.153 127.682 o
3 4 3 0.047 0.163 0.143 150.922 o
3 4 4 0.150 0.173 0.122 197.249 o
3 4 5 0.127 0.265 0.112 230.087 o
3 4 6 1.266 1.529 0.183 70.768 o
3 4 7 1.341 1.457 0.122 120.623 o
3 4 8 5.180 5.380 0.173 32.513 o
3 4 9 0.932 0.948 0.122 142.978 o
3 4 10 0.708 0.673 0.132 139.455 o
3 4 11 0.040 0.020 0.092 365.768 o
3 5 3 11.852 12.096 0.316 9.061 o
3 5 4 8.171 8.376 0.744 4.586 o
3 5 5 1.057 1.223 0.122 133.520 o
3 5 6 0.165 0.153 0.183 90.925 o
3 5 7 4.254 4.412 0.204 34.414 o
3 5 8 0.245 0.204 0.173 99.980 o
3 5 9 0.303 0.336 0.132 160.227 o
3 5 10 0.002 0.051 0.173 104.773 o
3 6 3 0.069 0.183 0.122 201.561 o
3 6 4 4.142 4.300 0.306 22.265 o
3 6 5 0.611 0.734 0.132 141.670 o
3 6 6 4.910 5.044 0.265 23.949 o
3 6 7 2.068 2.160 0.143 80.459 o
3 6 8 1.704 1.773 0.245 42.326 o
3 6 9 1.703 1.855 0.132 96.837 o
3 6 10 0.232 0.214 0.153 126.839 o
3 7 3 6.337 6.542 0.306 17.130 o
3 7 4 0.066 0.143 0.194 82.873 o
3 7 5 0.158 0.397 0.122 190.634 o
3 7 6 1.602 1.732 0.112 119.259 o
3 7 7 1.038 0.978 0.153 101.183 o
3 7 8 0.692 0.724 0.214 61.977 o
3 7 9 0.069 0.132 0.204 74.924 o
3 7 10 0.072 0.214 0.173 102.483 o
3 8 3 2.360 2.578 0.132 78.106 o
3 8 4 2.177 2.150 0.132 84.772 o
3 8 5 9.533 9.803 0.234 13.806 o
3 8 6 0.199 0.224 0.112 226.174 o
3 8 7 2.410 2.690 0.234 40.124 o
3 8 8 0.469 0.550 0.183 84.962 o
3 8 9 0.183 0.479 0.163 110.761 o
3 9 3 1.673 1.773 0.143 90.454 o
3 9 4 0.006 0.194 0.163 116.774 o
3 9 5 0.750 0.815 0.112 172.738 o
3 9 6 1.384 1.508 0.122 118.565 o
3 9 7 0.148 0.163 0.153 129.453 o
3 9 8 0.016 0.051 0.163 117.952 o
3 9 9 0.042 0.234 0.132 172.971 o
3 10 3 0.810 0.785 0.112 170.391 o
3 10 4 4.708 5.075 0.132 41.059 o
3 10 5 1.356 1.304 0.122 122.470 o
3 10 6 2.473 2.782 0.234 39.663 o
3 10 7 0.103 0.204 0.153 130.052 o
3 10 8 0.025 0.082 0.224 62.452 o
3 11 3 0.020 0.041 0.132 178.077 o
3 11 4 3.080 3.169 0.255 32.656 o
3 11 5 0.337 0.357 0.122 182.246 o
3 11 6 0.024 0.122 0.204 75.326 o
3 11 7 0.178 0.194 0.143 146.272 o
3 12 3 0.074 0.214 0.132 172.026 o
3 12 4 0.352 0.326 0.122 182.309 o
3 12 5 1.001 1.060 0.122 138.379 o
3 12 6 0.201 0.234 0.163 112.699 o
3 12 7 0.000 0.020 0.082 471.849 o
3 13 3 5.316 5.370 0.153 34.269 o
3 13 4 0.001 0.051 0.173 104.781 o
3 13 5 0.328 0.214 0.153 124.570 o
3 13 6 0.043 0.122 0.183 92.574 o
3 14 3 0.044 0.071 0.214 68.411 o
3 14 4 0.030 0.153 0.143 151.631 o
3 15 3 0.004 0.061 0.194 83.871 o
4 0 4 4.577 4.412 0.183 36.070 o
4 0 6 0.437 0.652 0.194 76.826 o
4 0 8 0.096 0.163 0.194 82.487 o
4 0 10 0.723 0.825 0.183 80.455 o
4 1 4 0.003 0.051 0.173 104.753 o
4 1 5 2.902 3.190 0.316 24.280 o
4 1 6 0.904 1.019 0.132 127.707 o
4 1 7 0.132 0.143 0.183 91.382 o
4 1 8 0.354 0.479 0.112 206.165 o
4 1 9 0.327 0.438 0.122 180.691 o
4 1 10 0.428 0.560 0.132 151.228 o
4 2 4 0.952 0.968 0.112 158.911 o
4 2 5 1.322 1.498 0.122 120.561 o
4 2 6 1.241 1.213 0.245 45.349 o
4 2 7 0.001 0.122 0.183 93.075 o
4 2 8 1.463 1.559 0.122 115.555 o
4 2 9 0.212 0.275 0.143 143.977 o
4 2 10 0.102 0.448 0.326 29.282 o
4 3 4 1.436 1.600 0.316 28.157 o
4 3 5 0.069 0.041 0.173 103.833 o
4 3 6 0.108 0.071 0.194 82.810 o
4 3 7 0.189 0.163 0.163 113.589 o
4 3 8 0.016 0.112 0.183 92.957 o
4 3 9 0.760 0.958 0.122 149.462 o
4 3 10 0.066 0.061 0.204 75.236 o
4 4 4 0.043 0.122 0.194 83.192 o
4 4 5 0.029 0.112 0.173 103.907 o
4 4 6 0.105 0.224 0.153 129.760 o
4 4 7 3.868 4.045 0.132 51.307 o
4 4 8 0.052 0.031 0.112 245.472 o
4 4 9 0.941 0.887 0.122 143.805 o
4 4 10 0.041 0.082 0.234 57.095 o
4 5 4 8.040 9.120 0.764 4.364 o
4 5 5 0.835 1.253 0.377 21.099 o
4 5 6 0.676 0.693 0.122 158.428 o
4 5 7 0.257 0.428 0.112 214.484 o
4 5 8 0.742 0.724 0.122 154.993 o
4 5 9 0.006 0.112 0.194 83.606 o
4 6 4 1.650 1.885 0.132 97.647 o
4 6 5 0.869 0.734 0.132 133.215 o
4 6 6 1.135 1.294 0.112 143.793 o
4 6 7 0.307 0.326 0.122 184.619 o
4 6 8 1.441 1.824 0.132 102.963 o
4 6 9 0.058 0.122 0.204 75.053 o
4 7 4 2.329 2.293 0.112 92.797 o
4 7 5 2.450 2.527 0.234 40.301 o
4 7 6 2.807 3.067 0.346 21.207 o
4 7 7 0.683 0.754 0.122 156.815 o
4 7 8 0.014 0.082 0.234 57.215 o
4 7 9 0.141 0.112 0.224 61.734 o
4 8 4 2.616 2.660 0.122 78.327 o
4 8 5 0.056 0.132 0.143 151.130 o
4 8 6 0.436 0.367 0.132 154.531 o
4 8 7 0.298 0.387 0.132 159.424 o
4 8 8 0.034 0.031 0.132 177.697 o
4 9 4 1.436 1.579 0.183 68.778 o
4 9 5 4.114 4.484 0.143 45.501 o
4 9 6 0.684 0.815 0.194 73.695 o
4 9 7 0.592 0.693 0.132 143.034 o
4 9 8 0.088 0.102 0.214 68.022 o
4 10 4 0.037 0.082 0.214 68.422 o
4 10 5 0.775 0.795 0.255 44.653 o
4 10 6 0.033 0.071 0.214 68.485 o
4 10 7 0.013 0.051 0.183 93.360 o
4 11 4 1.123 1.223 0.153 97.265 o
4 11 5 0.251 0.387 0.255 47.168 o
4 11 6 0.784 1.060 0.255 44.155 o
4 12 4 0.800 0.795 0.122 151.155 o
4 12 5 0.008 0.132 0.183 92.934 o
4 13 4 0.019 0.112 0.204 75.401 o
5 0 5 0.131 0.194 0.173 101.754 o
5 0 7 0.002 0.112 0.224 62.495 o
5 0 9 0.414 0.408 0.194 78.223 o
5 1 5 4.810 3.801 0.214 31.942 o
5 1 6 3.115 2.700 0.245 35.175 o
5 1 7 0.238 0.214 0.132 165.242 o
5 1 8 0.273 0.357 0.132 161.014 o
5 1 9 0.001 0.112 0.183 93.131 o
5 2 5 0.029 0.092 0.214 68.446 o
5 2 6 0.005 0.173 0.163 116.993 o
5 2 7 0.334 0.255 0.132 160.616 o
5 2 8 0.075 0.122 0.204 74.919 o
5 2 9 0.053 0.224 0.163 115.583 o
5 3 5 2.408 2.303 0.194 52.947 o
5 3 6 0.182 0.285 0.143 144.733 o
5 3 7 1.014 0.988 0.173 83.663 o
5 3 8 0.178 0.204 0.153 128.237 o
5 3 9 0.171 0.326 0.143 144.434 o
5 4 5 0.504 0.571 0.112 193.626 o
5 4 6 0.452 0.448 0.122 174.263 o
5 4 7 0.000 0.204 0.143 151.761 o
5 4 8 0.321 0.183 0.204 72.718 o
5 4 9 0.015 0.082 0.224 62.508 o
5 5 5 0.017 0.051 0.153 134.043 o
5 5 6 0.095 0.071 0.204 74.963 o
5 5 7 0.267 0.397 0.132 160.454 o
5 5 8 0.268 0.367 0.132 161.023 o
5 6 5 0.018 0.153 0.153 132.765 o
5 6 6 0.174 0.296 0.132 166.221 o
5 6 7 0.423 0.479 0.173 95.357 o
5 6 8 0.007 0.183 0.204 75.213 o
5 7 5 1.137 0.927 0.194 68.981 o
5 7 6 0.086 0.071 0.204 75.036 o
5 7 7 0.000 0.092 0.194 83.760 o
5 7 8 0.070 0.285 0.143 148.222 o
5 8 5 0.525 0.571 0.122 167.890 o
5 8 6 0.081 0.194 0.194 82.486 o
5 8 7 0.046 0.163 0.204 74.987 o
5 9 5 0.013 0.041 0.153 134.279 o
5 9 6 0.570 0.683 0.132 143.986 o
5 9 7 0.005 0.061 0.153 134.231 o
5 10 5 0.005 0.173 0.204 75.273 o
5 10 6 0.228 0.387 0.163 110.770 o
5 11 5 0.623 0.703 0.163 100.864 o
6 0 6 2.433 2.334 0.183 56.262 o
6 0 8 0.011 0.051 0.214 68.696 o
6 1 6 0.007 0.224 0.132 174.689 o
6 1 7 0.078 0.173 0.153 131.034 o
6 1 8 0.035 0.051 0.173 104.273 o
6 2 6 0.011 0.010 0.051 1183.570 o
6 2 7 0.386 0.499 0.132 153.930 o
6 2 8 0.000 0.224 0.153 132.322 o
6 3 6 0.316 0.418 0.132 158.128 o
6 3 7 0.442 0.367 0.132 154.327 o
6 4 6 0.434 0.520 0.132 151.763 o
6 4 7 0.017 0.041 0.132 178.247 o
6 5 6 0.390 0.285 0.143 138.438 o
6 5 7 0.103 0.092 0.245 52.204 o
6 6 6 0.175 0.173 0.204 73.919 o
6 6 7 0.016 0.265 0.173 102.945 o
6 7 6 0.008 0.031 0.132 178.867 o
6 8 6 0.042 0.173 0.173 103.243 o
;
_iucr_refine_instructions_details
;
TITL EPOXIDE OLEX2: imported from CIF
CELL 0.71068 4.633 8.4 6.577 90 100.37 90
ZERR 4 0.005 0.001 0.003 0 0.06 0
LATT 1
SYMM 0.5-X,0.5+Y,0.5-Z
SFAC C H O
UNIT 8 16 4

L.S. 10
PLAN  10
CONF
ACTA
MORE -1
BOND $H
WGHT 0.03469 0.006471
FVAR 0.990625
REM <olex2.extras>
REM <HklSrc "%.\\olex2socket.hkl">
REM </olex2.extras>

O1    3     0.11645  0.83111  0.12465  11.00000  0.03527  0.02546  0.02949 =
 -0.00352  0.01031  0.00307
C2    1     0.14847  0.93865  0.29594  11.00000  0.03271  0.02489  0.02704 =
 -0.00202  0.00554  0.00037
H2a   2     0.28225  0.89146  0.43715  11.00000  0.07067  0.06244  0.03698 =
 0.00167 -0.00976  0.01887
H2b   2     0.17396  1.06339  0.25693  11.00000  0.06441  0.03021  0.05951 =
 -0.00244  0.01654 -0.01054
C3    1    -0.13427  0.86466  0.21813  11.00000  0.03106  0.03350  0.03412 =
 0.00008  0.01179 -0.00359
H3a   2    -0.30674  0.93224  0.12072  11.00000  0.04045  0.09991  0.05213 =
 0.01295 -0.00250  0.02389
H3b   2    -0.20551  0.76709  0.30331  11.00000  0.06959  0.06234  0.07374 =
 0.00298  0.02754 -0.02715
HKLF 4

END
Q1 1 0.066667 0.7 0.083333 11 0.05 0.19

  REM The information below was added by Olex2.
  REM
  REM R1 = 0.0270 for 1306 Fo > 4sig(Fo) and 0.0567 for all 2081 data
  REM 64 parameters refined using 0 restraints
  REM Highest difference peak 0.1893, deepest hole -0.2676
  REM Mean Shift 0.0001, Max Shift -0.0002.

  REM +++ Tabular Listing of Refinement Information +++
  REM R1_all = 0.0567
  REM R1_gt = 0.0270
  REM wR_ref = 0.0725
  REM GOOF = 0.7542
  REM Shift_max = -0.0002
  REM Shift_mean = 0.0001
  REM Reflections_all = 2081
  REM Reflections_gt = 1306
  REM Parameters = 64
  REM Hole = -0.2676
  REM Peak = 0.1893
  REM Flack = n/a


;
_olex2_submission_special_instructions  'No special instructions were received'
