data_epoxide
_audit_creation_date               2023-10-19
_audit_creation_method
;
Olex2 1.5
(compiled 2023.03.06 svn.rbb2c1857 for OlexSys, GUI svn.r6748)
;
_audit_contact_author_address      ?
_audit_contact_author_email        ?
_audit_contact_author_name         ''
_audit_contact_author_phone        ?
_publ_contact_author_id_orcid      ?
_publ_section_references
;
Bourhis, L.J., Dolomanov, O.V., Gildea, R.J., Howard, J.A.K., Puschmann, H.
 (2015). Acta Cryst. A71, 59-75.

Dolomanov, O.V., Bourhis, L.J., Gildea, R.J, Howard, J.A.K. & Puschmann, H.
 (2009), J. Appl. Cryst. 42, 339-341.
;
_chemical_formula_moiety           'C2 H4 O'
_chemical_formula_sum              'C2 H4 O'
_chemical_formula_weight           44.053
loop_
  _atom_type_symbol
  _atom_type_scat_dispersion_real
  _atom_type_scat_dispersion_imag
  _atom_type_scat_Cromer_Mann_a1
  _atom_type_scat_Cromer_Mann_a2
  _atom_type_scat_Cromer_Mann_a3
  _atom_type_scat_Cromer_Mann_a4
  _atom_type_scat_Cromer_Mann_b1
  _atom_type_scat_Cromer_Mann_b2
  _atom_type_scat_Cromer_Mann_b3
  _atom_type_scat_Cromer_Mann_b4
  _atom_type_scat_Cromer_Mann_c
  _atom_type_scat_source
  _atom_type_scat_dispersion_source
 C 0.00347 0.00161 2.31000 1.02000 1.58860 0.86500 20.84390 10.20750 0.56870
 51.65120 0.21560 'International Tables Volume C Table 6.1.1.4 (pp. 500-502)'
 'Henke, Gullikson and Davis, At. Data and Nucl. Data Tables, 1993, 54, 2'
 H 0.00000 0.00000 0.49300 0.32291 0.14019 0.04081 10.51090 26.12570 3.14236
 57.79970 0.00304 'International Tables Volume C Table 6.1.1.4 (pp. 500-502)'
 'Henke, Gullikson and Davis, At. Data and Nucl. Data Tables, 1993, 54, 2'
 O 0.01158 0.00611 3.04850 2.28680 1.54630 0.86700 13.27710 5.70110 0.32390
 32.90890 0.25080 'International Tables Volume C Table 6.1.1.4 (pp. 500-502)'
 'Henke, Gullikson and Davis, At. Data and Nucl. Data Tables, 1993, 54, 2'

_space_group_crystal_system        'monoclinic'
_space_group_IT_number             14
_space_group_name_H-M_alt          'P 1 21/n 1'
_space_group_name_Hall             '-P 2yn'
loop_
  _space_group_symop_id
  _space_group_symop_operation_xyz
 1 x,y,z
 2 -x+1/2,y+1/2,-z+1/2
 3 -x,-y,-z
 4 x-1/2,-y-1/2,z-1/2

_symmetry_Int_Tables_number        14
_cell_length_a                     4.633(5)
_cell_length_b                     8.400(1)
_cell_length_c                     6.577(3)
_cell_angle_alpha                  90
_cell_angle_beta                   100.37(6)
_cell_angle_gamma                  90
_cell_volume                       251.8(3)
_cell_formula_units_Z              4
_cell_measurement_temperature      293(2)
_exptl_absorpt_coefficient_mu      0.092
_exptl_crystal_density_diffrn      1.162
_exptl_crystal_F_000               96.074
_diffrn_reflns_av_R_equivalents    0.0000
_diffrn_reflns_av_unetI/netI       0.0400
_diffrn_reflns_Laue_measured_fraction_full  1.0000
_diffrn_reflns_Laue_measured_fraction_max  1.0000
_diffrn_reflns_limit_h_max         6
_diffrn_reflns_limit_h_min         -9
_diffrn_reflns_limit_k_max         16
_diffrn_reflns_limit_k_min         0
_diffrn_reflns_limit_l_max         13
_diffrn_reflns_limit_l_min         -6
_diffrn_reflns_number              2081
_diffrn_reflns_point_group_measured_fraction_full  1.0000
_diffrn_reflns_point_group_measured_fraction_max  1.0000
_diffrn_reflns_theta_full          25.2398
_diffrn_reflns_theta_max           45.00
_diffrn_reflns_theta_min           3.98
_diffrn_measured_fraction_theta_full  1.0000
_diffrn_measured_fraction_theta_max  1.0000
_diffrn_radiation_type             'Mo K\a'
_diffrn_radiation_wavelength       0.71068
_reflns_Friedel_coverage           0.0
_reflns_limit_h_max                6
_reflns_limit_h_min                -9
_reflns_limit_k_max                16
_reflns_limit_k_min                0
_reflns_limit_l_max                13
_reflns_limit_l_min                -6
_reflns_number_gt                  1306
_reflns_number_total               2081
_reflns_threshold_expression       I>=2u(I)
_computing_molecular_graphics      'Olex2 1.5 (Dolomanov et al., 2009)'
_computing_publication_material    'Olex2 1.5 (Dolomanov et al., 2009)'
_computing_structure_refinement    'olex2.refine 1.5 (Bourhis et al., 2015)'
_refine_diff_density_max           0.2338
_refine_diff_density_min           -0.2616
_refine_diff_density_rms           0.0603
_refine_ls_d_res_high              0.5026
_refine_ls_d_res_low               5.1256
_refine_ls_goodness_of_fit_ref     1.0150
_refine_ls_hydrogen_treatment      constr
_refine_ls_matrix_type             full
_refine_ls_number_constraints      6
_refine_ls_number_parameters       28
_refine_ls_number_reflns           2081
_refine_ls_number_restraints       0
_refine_ls_R_factor_all            0.0676
_refine_ls_R_factor_gt             0.0379
_refine_ls_restrained_S_all        1.0150
_refine_ls_shift/su_max            -0.0001
_refine_ls_shift/su_mean           0.0000
_refine_ls_structure_factor_coef   Fsqd
_refine_ls_weighting_details      
 'w=1/[\s^2^(Fo^2^)+(0.0499P)^2^+0.0052P] where P=(Fo^2^+2Fc^2^)/3'
_refine_ls_weighting_scheme        calc
_refine_ls_wR_factor_gt            0.1078
_refine_ls_wR_factor_ref           0.1157
_olex2_refinement_description
;
1. Fixed Uiso
 At 1.2 times of:
  All C(H,H) groups
2.a Secondary CH2 refined with riding coordinates:
 C2(H2a,H2b), C3(H3a,H3b)
;
loop_
  _atom_site_label
  _atom_site_type_symbol
  _atom_site_fract_x
  _atom_site_fract_y
  _atom_site_fract_z
  _atom_site_U_iso_or_equiv
  _atom_site_adp_type
  _atom_site_occupancy
  _atom_site_refinement_flags_posn
 O1 O 0.11712(8) 0.83086(4) 0.12414(6) 0.02982(10) Uani 1.000000 .
 C2 C 0.14828(11) 0.93859(6) 0.29590(7) 0.02872(10) Uani 1.000000 .
 H2a H 0.25673(11) 0.90200(6) 0.42764(7) 0.03446(12) Uiso 1.000000 R
 H2b H 0.16973(11) 1.05100(6) 0.26834(7) 0.03446(12) Uiso 1.000000 R
 C3 C -0.13413(12) 0.86458(7) 0.21835(8) 0.03257(11) Uani 1.000000 .
 H3a H -0.28814(12) 0.93087(7) 0.14229(8) 0.03908(13) Uiso 1.000000 R
 H3b H -0.20111(12) 0.78182(7) 0.30164(8) 0.03908(13) Uiso 1.000000 R

loop_
  _atom_site_aniso_label
  _atom_site_aniso_U_11
  _atom_site_aniso_U_22
  _atom_site_aniso_U_33
  _atom_site_aniso_U_12
  _atom_site_aniso_U_13
  _atom_site_aniso_U_23
 O1 0.03459(19) 0.02642(15) 0.03014(16) 0.00246(12) 0.01035(13) -0.00488(11)
 C2 0.0339(2) 0.02521(17) 0.02718(18) 0.00068(15) 0.00589(15) -0.00245(14)
 C3 0.0315(2) 0.0342(2) 0.0344(2) -0.00304(17) 0.01248(18) -0.00001(17)

loop_
  _geom_bond_atom_site_label_1
  _geom_bond_atom_site_label_2
  _geom_bond_distance
  _geom_bond_site_symmetry_2
  _geom_bond_publ_flag
 O1 C2 1.4343(7) . ?
 O1 C3 1.4418(14) . ?
 C2 H2a 0.9700 . ?
 C2 H2b 0.9700 . ?
 C2 C3 1.4554(15) . ?
 C3 H3a 0.9700 . ?
 C3 H3b 0.9700 . ?

loop_
  _geom_angle_atom_site_label_1
  _geom_angle_atom_site_label_2
  _geom_angle_atom_site_label_3
  _geom_angle
  _geom_angle_site_symmetry_1
  _geom_angle_site_symmetry_3
  _geom_angle_publ_flag
 C3 O1 C2 60.80(3) . . ?
 H2a C2 O1 117.79(3) . . ?
 H2b C2 O1 117.79(2) . . ?
 H2b C2 H2a 114.9 . . ?
 C3 C2 O1 59.86(3) . . ?
 C3 C2 H2a 117.79(3) . . ?
 C3 C2 H2b 117.79(3) . . ?
 C2 C3 O1 59.34(3) . . ?
 H3a C3 O1 117.84(3) . . ?
 H3a C3 C2 117.84(3) . . ?
 H3b C3 O1 117.84(3) . . ?
 H3b C3 C2 117.84(3) . . ?
 H3b C3 H3a 115.0 . . ?

loop_
  _diffrn_refln_index_h
  _diffrn_refln_index_k
  _diffrn_refln_index_l
  _diffrn_refln_intensity_net
  _diffrn_refln_intensity_u
 -9 0 1 0.15 0.23
 -9 0 3 0.03 0.17
 -9 0 5 0.25 0.2
 -9 1 0 0.08 0.19
 -9 1 1 0.07 0.21
 -9 1 2 0.03 0.14
 -9 1 3 0.19 0.16
 -9 1 4 0.2 0.19
 -9 2 0 0.09 0.23
 -9 2 1 0.04 0.15
 -9 2 2 0.13 0.2
 -9 2 3 0.17 0.2
 -9 2 4 0.09 0.2
 -9 3 1 0.07 0.22
 -9 3 2 0.01 0.07
 -9 3 3 0.06 0.2
 -8 0 -4 0.12 0.25
 -8 0 -2 0.07 0.26
 -8 0 0 1.97 0.18
 -8 0 2 3.41 0.2
 -8 0 4 0.43 0.17
 -8 0 6 0.64 0.18
 -8 0 8 1.3 0.2
 -8 1 -4 0.17 0.2
 -8 1 -3 0.13 0.2
 -8 1 -2 0.16 0.18
 -8 1 -1 0.13 0.19
 -8 1 0 0.02 0.11
 -8 1 1 0.2 0.14
 -8 1 2 0.57 0.18
 -8 1 3 0.47 0.35
 -8 1 4 0.44 0.21
 -8 1 5 0.14 0.2
 -8 1 6 0.14 0.17
 -8 1 7 0.13 0.2
 -8 1 8 0.05 0.19
 -8 2 -4 0.2 0.2
 -8 2 -3 0.18 0.16
 -8 2 -2 0.06 0.2
 -8 2 -1 0.44 0.13
 -8 2 0 0.02 0.1
 -8 2 1 2.53 0.69
 -8 2 2 0.11 0.2
 -8 2 3 1.05 0.34
 -8 2 4 0.63 0.12
 -8 2 5 0.35 0.21
 -8 2 6 0.22 0.14
 -8 2 7 0.97 0.13
 -8 2 8 0.01 0.05
 -8 3 -3 0.37 0.24
 -8 3 -2 0.15 0.21
 -8 3 -1 0.91 0.14
 -8 3 0 0.33 0.13
 -8 3 1 0.06 0.2
 -8 3 2 0.16 0.19
 -8 3 3 0.84 0.33
 -8 3 4 0.24 0.18
 -8 3 5 0.04 0.17
 -8 3 6 0.14 0.17
 -8 3 7 0.05 0.18
 -8 3 8 0.12 0.22
 -8 4 -3 0.09 0.23
 -8 4 -2 0.07 0.21
 -8 4 -1 0.1 0.21
 -8 4 0 0.65 0.2
 -8 4 1 0.09 0.19
 -8 4 2 0.65 0.12
 -8 4 3 0.28 0.13
 -8 4 4 0.1 0.2
 -8 4 5 1.13 0.23
 -8 4 6 0.25 0.14
 -8 4 7 0.04 0.16
 -8 5 -3 0.11 0.19
 -8 5 -2 0.74 0.19
 -8 5 -1 0.1 0.16
 -8 5 0 0.64 0.32
 -8 5 1 0.16 0.2
 -8 5 2 0.1 0.24
 -8 5 3 0.07 0.21
 -8 5 4 0.36 0.13
 -8 5 5 0.06 0.2
 -8 5 6 0.16 0.2
 -8 5 7 0.22 0.19
 -8 6 -2 0.18 0.16
 -8 6 -1 0.02 0.12
 -8 6 0 0.24 0.18
 -8 6 1 0.16 0.21
 -8 6 2 0.22 0.19
 -8 6 3 0.24 0.19
 -8 6 4 0.59 0.14
 -8 6 5 0.23 0.15
 -8 6 6 0.1 0.21
 -8 7 -1 0.47 0.13
 -8 7 0 0.06 0.2
 -8 7 1 0.22 0.19
 -8 7 2 0.61 0.13
 -8 7 3 0.2 0.15
 -8 7 4 0.1 0.18
 -8 7 5 0.07 0.22
 -8 8 1 0.28 0.14
 -8 8 2 0.13 0.2
 -8 8 3 0.13 0.2
 -7 0 -5 0.57 0.18
 -7 0 -3 0.6 0.16
 -7 0 -1 0.12 0.21
 -7 0 1 0.09 0.26
 -7 0 3 4.36 0.19
 -7 0 5 0.91 0.17
 -7 0 7 0.63 0.19
 -7 0 9 0.12 0.24
 -7 1 -6 0.05 0.18
 -7 1 -5 0.23 0.25
 -7 1 -4 0.17 0.18
 -7 1 -3 0.1 0.16
 -7 1 -2 0.55 0.12
 -7 1 -1 0.51 0.12
 -7 1 0 3.92 0.89
 -7 1 1 5.59 1.1
 -7 1 2 5.81 0.92
 -7 1 3 2.1 0.22
 -7 1 4 0.55 0.16
 -7 1 5 0.68 0.12
 -7 1 6 0.22 0.12
 -7 1 7 0.52 0.12
 -7 1 8 0.09 0.2
 -7 1 9 0.01 0.07
 -7 1 10 0.2 0.17
 -7 2 -6 0.16 0.16
 -7 2 -5 0.31 0.24
 -7 2 -4 0.43 0.18
 -7 2 -3 0.08 0.18
 -7 2 -2 0.05 0.17
 -7 2 -1 0.47 0.18
 -7 2 0 0.03 0.11
 -7 2 1 0.13 0.19
 -7 2 2 1.64 0.23
 -7 2 3 1.86 0.37
 -7 2 4 3.36 0.22
 -7 2 5 1.43 0.12
 -7 2 6 0.07 0.2
 -7 2 7 0.06 0.19
 -7 2 8 0.1 0.17
 -7 2 9 0.06 0.2
 -7 2 10 0.27 0.16
 -7 3 -6 0.21 0.15
 -7 3 -5 0.03 0.13
 -7 3 -4 0.11 0.21
 -7 3 -3 0.42 0.14
 -7 3 -2 0.17 0.13
 -7 3 -1 1.79 0.12
 -7 3 0 0.89 0.21
 -7 3 1 2.6 0.47
 -7 3 2 2.33 0.42
 -7 3 3 1.2 0.12
 -7 3 4 0.37 0.21
 -7 3 5 0.41 0.19
 -7 3 6 1.55 0.13
 -7 3 7 0.1 0.17
 -7 3 8 0.15 0.2
 -7 3 9 0.28 0.19
 -7 4 -6 0.11 0.3
 -7 4 -5 0.13 0.2
 -7 4 -4 0.06 0.19
 -7 4 -3 0.04 0.16
 -7 4 -2 0.57 0.19
 -7 4 -1 0.2 0.15
 -7 4 0 0.69 0.12
 -7 4 1 0.42 0.12
 -7 4 2 1.19 0.12
 -7 4 3 2.73 0.2
 -7 4 4 5.26 0.79
 -7 4 5 1.47 0.19
 -7 4 6 0.6 0.12
 -7 4 7 0.1 0.2
 -7 4 8 0.07 0.21
 -7 4 9 0.38 0.13
 -7 5 -5 0.05 0.18
 -7 5 -4 0.1 0.18
 -7 5 -3 0.04 0.15
 -7 5 -2 0.77 0.25
 -7 5 -1 0.13 0.18
 -7 5 0 0.37 0.12
 -7 5 1 0.39 0.13
 -7 5 2 0.13 0.19
 -7 5 3 0.06 0.18
 -7 5 4 0.37 0.12
 -7 5 5 1.49 0.13
 -7 5 6 0.51 0.14
 -7 5 7 0.25 0.14
 -7 5 8 0.4 0.28
 -7 5 9 0.34 0.13
 -7 6 -5 0.1 0.25
 -7 6 -4 0.2 0.16
 -7 6 -3 0.01 0.09
 -7 6 -2 0.11 0.18
 -7 6 -1 0.59 0.16
 -7 6 0 0.17 0.18
 -7 6 1 0.13 0.18
 -7 6 2 0.89 0.33
 -7 6 3 3.37 0.14
 -7 6 4 1.47 0.13
 -7 6 5 1.62 0.13
 -7 6 6 1.5 0.22
 -7 6 7 0.17 0.16
 -7 6 8 1.07 0.13
 -7 7 -4 0.37 0.28
 -7 7 -3 0.15 0.21
 -7 7 -2 0.1 0.18
 -7 7 -1 0.15 0.16
 -7 7 0 0.11 0.21
 -7 7 1 0.63 0.12
 -7 7 2 0.13 0.18
 -7 7 3 0.12 0.18
 -7 7 4 0.24 0.18
 -7 7 5 0.59 0.12
 -7 7 6 0.21 0.18
 -7 7 7 0.04 0.16
 -7 7 8 0.2 0.19
 -7 8 -3 0.53 0.13
 -7 8 -2 0.18 0.16
 -7 8 -1 0.04 0.13
 -7 8 0 0.02 0.11
 -7 8 1 0.35 0.13
 -7 8 2 0.66 0.17
 -7 8 3 0.23 0.21
 -7 8 4 0.85 0.12
 -7 8 5 0.81 0.12
 -7 8 6 0.18 0.15
 -7 8 7 1.86 0.13
 -7 9 -2 0.14 0.21
 -7 9 -1 0.15 0.21
 -7 9 0 0.57 0.3
 -7 9 1 0.14 0.17
 -7 9 2 0.84 0.12
 -7 9 3 0.06 0.2
 -7 9 4 0.1 0.24
 -7 9 5 0.03 0.11
 -7 9 6 0.47 0.13
 -7 10 -1 0.13 0.2
 -7 10 0 0.16 0.2
 -7 10 1 0.14 0.2
 -7 10 2 0.19 0.2
 -7 10 3 0.29 0.19
 -7 10 4 0.02 0.12
 -7 10 5 0.06 0.18
 -6 0 -4 4.01 0.19
 -6 0 -2 0.82 0.19
 -6 0 0 2.3 0.21
 -6 0 2 8.73 0.24
 -6 0 4 0.57 0.18
 -6 0 6 19.43 0.53
 -6 0 8 7.64 0.21
 -6 0 10 0.22 0.2
 -6 1 -5 0.55 0.13
 -6 1 -4 1.65 0.11
 -6 1 -3 1.11 0.11
 -6 1 -2 0.99 0.1
 -6 1 -1 0.01 0.09
 -6 1 0 0.68 0.18
 -6 1 1 1.23 0.21
 -6 1 2 0.24 0.22
 -6 1 3 0.11 0.21
 -6 1 4 9.23 0.49
 -6 1 5 0.69 0.19
 -6 1 6 1.2 0.14
 -6 1 7 0.28 0.12
 -6 1 8 0.82 0.12
 -6 1 9 0.22 0.13
 -6 1 10 0.04 0.15
 -6 1 11 0.25 0.12
 -6 2 -5 2.61 0.43
 -6 2 -4 0.1 0.2
 -6 2 -3 1.48 0.21
 -6 2 -2 2.77 0.12
 -6 2 -1 0.41 0.27
 -6 2 0 2.07 0.26
 -6 2 1 4.22 0.21
 -6 2 2 0.39 0.13
 -6 2 3 1.78 0.13
 -6 2 4 0.28 0.14
 -6 2 5 7.72 0.61
 -6 2 6 0.19 0.12
 -6 2 7 11.46 0.4
 -6 2 8 0.2 0.15
 -6 2 9 0.94 0.12
 -6 2 10 0.66 0.15
 -6 2 11 0.22 0.17
 -6 3 -5 0.07 0.14
 -6 3 -4 0.25 0.13
 -6 3 -3 2.5 0.12
 -6 3 -2 0.03 0.14
 -6 3 -1 0.14 0.21
 -6 3 0 0.11 0.18
 -6 3 1 0.23 0.13
 -6 3 2 0.09 0.19
 -6 3 3 14.93 0.27
 -6 3 4 0.46 0.19
 -6 3 5 13.21 0.69
 -6 3 6 0.16 0.17
 -6 3 7 0.05 0.17
 -6 3 8 0.09 0.17
 -6 3 9 0.83 0.12
 -6 3 10 0.14 0.21
 -6 3 11 0.16 0.18
 -6 4 -5 0.09 0.15
 -6 4 -4 0.54 0.12
 -6 4 -3 2.13 0.12
 -6 4 -2 0.02 0.11
 -6 4 -1 6.29 0.17
 -6 4 0 0.25 0.18
 -6 4 1 0.16 0.19
 -6 4 2 1.01 0.13
 -6 4 3 2.21 0.27
 -6 4 4 0.68 0.11
 -6 4 5 0.17 0.16
 -6 4 6 3.8 0.48
 -6 4 7 0.3 0.12
 -6 4 8 1.06 0.11
 -6 4 9 0.8 0.32
 -6 4 10 0.13 0.19
 -6 5 -5 0.07 0.21
 -6 5 -4 0.47 0.11
 -6 5 -3 0.1 0.18
 -6 5 -2 1.17 0.12
 -6 5 -1 0.23 0.12
 -6 5 0 0.68 0.12
 -6 5 1 1.57 0.12
 -6 5 2 7.12 0.14
 -6 5 3 0.16 0.16
 -6 5 4 18.49 0.37
 -6 5 5 0.53 0.11
 -6 5 6 3.37 0.13
 -6 5 7 0.18 0.14
 -6 5 8 0.54 0.12
 -6 5 9 0.63 0.18
 -6 5 10 0.22 0.15
 -6 6 -5 0.16 0.19
 -6 6 -4 0.03 0.11
 -6 6 -3 0.03 0.12
 -6 6 -2 2.67 0.13
 -6 6 -1 0.15 0.15
 -6 6 0 1.22 0.12
 -6 6 1 0.02 0.09
 -6 6 2 1.37 0.12
 -6 6 3 0.24 0.12
 -6 6 4 0.19 0.17
 -6 6 5 0.35 0.12
 -6 6 6 1.76 0.12
 -6 6 7 0.11 0.18
 -6 6 8 0.19 0.18
 -6 6 9 0.11 0.16
 -6 6 10 0.63 0.13
 -6 7 -5 0.07 0.22
 -6 7 -4 0.42 0.19
 -6 7 -3 0.19 0.14
 -6 7 -2 0.77 0.51
 -6 7 -1 0.68 0.12
 -6 7 0 3.11 0.25
 -6 7 1 2.82 0.3
 -6 7 2 2.3 0.12
 -6 7 3 8.14 0.51
 -6 7 4 0.14 0.14
 -6 7 5 4.12 0.13
 -6 7 6 0.22 0.17
 -6 7 7 0.04 0.17
 -6 7 8 1.24 0.12
 -6 7 9 0.05 0.16
 -6 8 -5 0.43 0.13
 -6 8 -4 0.19 0.15
 -6 8 -3 0.01 0.05
 -6 8 -2 0.12 0.18
 -6 8 -1 0.3 0.14
 -6 8 0 0.03 0.14
 -6 8 1 0.37 0.13
 -6 8 2 0.86 0.17
 -6 8 3 0.47 0.12
 -6 8 4 0.32 0.12
 -6 8 5 1.14 0.13
 -6 8 6 0.52 0.12
 -6 8 7 1.32 0.13
 -6 8 8 0.3 0.14
 -6 8 9 0.16 0.18
 -6 9 -5 0.29 0.14
 -6 9 -4 0.04 0.17
 -6 9 -3 0.47 0.19
 -6 9 -2 0.17 0.15
 -6 9 -1 0.69 0.27
 -6 9 0 0.89 0.27
 -6 9 1 3.3 0.44
 -6 9 2 2.1 0.28
 -6 9 3 0.3 0.12
 -6 9 4 1.14 0.12
 -6 9 5 0.08 0.17
 -6 9 6 0.14 0.18
 -6 9 7 0.9 0.18
 -6 9 8 0.15 0.15
 -6 10 -4 0.32 0.14
 -6 10 -3 0.08 0.23
 -6 10 -2 0.17 0.16
 -6 10 -1 0.2 0.19
 -6 10 0 0.3 0.13
 -6 10 1 0.16 0.15
 -6 10 2 0.2 0.14
 -6 10 3 0.86 0.12
 -6 10 4 0.31 0.13
 -6 10 5 0.19 0.19
 -6 10 6 1.23 0.18
 -6 10 7 0.52 0.13
 -6 11 -3 0.13 0.21
 -6 11 -2 0.19 0.2
 -6 11 -1 0.17 0.2
 -6 11 0 0.9 0.12
 -6 11 1 0.74 0.36
 -6 11 2 0.23 0.15
 -6 11 3 0.07 0.2
 -6 11 4 0.14 0.21
 -6 11 5 0.21 0.17
 -6 11 6 0.51 0.35
 -6 12 -1 0.47 0.15
 -6 12 0 0.1 0.25
 -6 12 1 0.21 0.15
 -6 12 2 0.42 0.13
 -6 12 3 0.09 0.2
 -6 12 4 0.13 0.19
 -5 0 -3 6.71 0.22
 -5 0 -1 0.31 0.16
 -5 0 1 20.22 0.5
 -5 0 3 2.22 0.15
 -5 0 5 11.4 0.28
 -5 0 7 0.76 0.19
 -5 0 9 2.28 0.17
 -5 0 11 0.07 0.24
 -5 1 -4 6.96 0.16
 -5 1 -3 1.32 0.19
 -5 1 -2 0.2 0.17
 -5 1 -1 8.74 0.16
 -5 1 0 6.37 0.91
 -5 1 1 7.77 0.34
 -5 1 2 4.09 0.12
 -5 1 3 0.3 0.19
 -5 1 4 7.86 0.15
 -5 1 5 6.09 0.17
 -5 1 6 21 0.41
 -5 1 7 19.23 0.34
 -5 1 8 7.66 0.38
 -5 1 9 1.79 0.13
 -5 1 10 0.1 0.18
 -5 1 11 0.34 0.13
 -5 1 12 0.22 0.13
 -5 2 -4 3.11 0.31
 -5 2 -3 6.11 0.43
 -5 2 -2 7.2 0.64
 -5 2 -1 6.3 0.2
 -5 2 0 0.97 0.1
 -5 2 1 0.19 0.12
 -5 2 2 6.37 0.14
 -5 2 3 0.82 0.11
 -5 2 4 4.24 0.13
 -5 2 5 3.34 0.13
 -5 2 6 4.71 0.15
 -5 2 7 0.11 0.17
 -5 2 8 0.97 0.14
 -5 2 9 2.41 0.12
 -5 2 10 1.06 0.12
 -5 2 11 0.61 0.13
 -5 3 -4 1.51 0.14
 -5 3 -3 2.39 0.36
 -5 3 -2 4.17 0.31
 -5 3 -1 0.05 0.18
 -5 3 0 14.22 0.35
 -5 3 1 2.56 0.21
 -5 3 2 0.28 0.11
 -5 3 3 12.76 0.24
 -5 3 4 2.3 0.12
 -5 3 5 15.48 0.3
 -5 3 6 6.92 0.58
 -5 3 7 5.44 0.18
 -5 3 8 5.3 0.2
 -5 3 9 0.67 0.22
 -5 3 10 0.12 0.19
 -5 3 11 0.06 0.19
 -5 4 -4 3.03 0.21
 -5 4 -3 6.6 0.91
 -5 4 -2 17.4 1.4
 -5 4 -1 5.56 0.14
 -5 4 0 2.56 0.12
 -5 4 1 0.56 0.11
 -5 4 2 0.04 0.15
 -5 4 3 1.91 0.12
 -5 4 4 5.27 0.14
 -5 4 5 3.06 0.14
 -5 4 6 1.96 0.14
 -5 4 7 0.3 0.11
 -5 4 8 3.56 0.13
 -5 4 9 1.95 0.28
 -5 4 10 3.49 0.13
 -5 4 11 0.29 0.18
 -5 5 -4 0.01 0.06
 -5 5 -3 0.64 0.13
 -5 5 -2 1.16 0.14
 -5 5 -1 8.91 0.63
 -5 5 0 0.93 0.14
 -5 5 1 1.37 0.17
 -5 5 2 3.87 0.13
 -5 5 3 4.71 0.48
 -5 5 4 11.05 0.26
 -5 5 5 0.05 0.18
 -5 5 6 0.97 0.11
 -5 5 7 3.26 0.12
 -5 5 8 0.31 0.26
 -5 5 9 0.15 0.18
 -5 5 10 0.18 0.15
 -5 5 11 0.15 0.15
 -5 6 -4 1.64 0.12
 -5 6 -3 6.67 0.24
 -5 6 -2 5.94 0.16
 -5 6 -1 6.1 0.16
 -5 6 0 10.16 0.67
 -5 6 1 0.59 0.12
 -5 6 2 10.05 0.48
 -5 6 3 0.22 0.18
 -5 6 4 2.28 0.13
 -5 6 5 4.23 1.4
 -5 6 6 0.46 0.11
 -5 6 7 0.2 0.12
 -5 6 8 1.6 0.12
 -5 6 9 4.06 0.14
 -5 6 10 0.63 0.13
 -5 6 11 0.44 0.13
 -5 7 -4 0.18 0.15
 -5 7 -3 0.28 0.12
 -5 7 -2 1.65 0.22
 -5 7 -1 2.07 0.31
 -5 7 0 2.03 0.14
 -5 7 1 0.58 0.22
 -5 7 2 0.47 0.3
 -5 7 3 3.53 0.17
 -5 7 4 0.3 0.16
 -5 7 5 0.22 0.13
 -5 7 6 0.71 0.12
 -5 7 7 2.17 0.12
 -5 7 8 0.25 0.13
 -5 7 9 0.01 0.08
 -5 7 10 0.1 0.17
 -5 8 -4 0.54 0.11
 -5 8 -3 0.96 0.24
 -5 8 -2 1.82 0.12
 -5 8 -1 4.49 0.47
 -5 8 0 0.22 0.12
 -5 8 1 13.62 1.6
 -5 8 2 1.05 0.11
 -5 8 3 5.34 0.35
 -5 8 4 0.99 0.11
 -5 8 5 0.43 0.12
 -5 8 6 0.41 0.13
 -5 8 7 1.58 0.12
 -5 8 8 1.05 0.12
 -5 8 9 0.27 0.12
 -5 8 10 0.59 0.13
 -5 9 -4 1.85 0.13
 -5 9 -3 0.11 0.17
 -5 9 -2 0.08 0.15
 -5 9 -1 0.07 0.18
 -5 9 0 1.98 0.12
 -5 9 1 0.16 0.16
 -5 9 2 0.22 0.17
 -5 9 3 0.7 0.11
 -5 9 4 0.35 0.11
 -5 9 5 1.37 0.12
 -5 9 6 2.25 0.26
 -5 9 7 0.14 0.16
 -5 9 8 1.64 0.18
 -5 9 9 0.07 0.2
 -5 10 -4 0.15 0.19
 -5 10 -3 0.16 0.19
 -5 10 -2 0.14 0.19
 -5 10 -1 0.17 0.13
 -5 10 0 4.41 0.44
 -5 10 1 1.11 0.12
 -5 10 2 6.12 0.81
 -5 10 3 0.19 0.13
 -5 10 4 0.17 0.14
 -5 10 5 0.27 0.15
 -5 10 6 1.53 0.12
 -5 10 7 0.12 0.18
 -5 10 8 0.05 0.13
 -5 11 -4 0.03 0.14
 -5 11 -3 0.43 0.18
 -5 11 -2 0.12 0.19
 -5 11 -1 0.4 0.19
 -5 11 0 0.23 0.13
 -5 11 1 0.22 0.13
 -5 11 2 1.17 0.13
 -5 11 3 0.05 0.17
 -5 11 4 3.87 0.47
 -5 11 5 0.58 0.12
 -5 11 6 0.96 0.3
 -5 11 7 1.53 0.23
 -5 11 8 0.05 0.2
 -5 12 -4 0.02 0.12
 -5 12 -3 0.23 0.16
 -5 12 -2 0.24 0.19
 -5 12 -1 0.08 0.21
 -5 12 0 0.14 0.2
 -5 12 1 1.79 0.16
 -5 12 2 0.17 0.19
 -5 12 3 0.17 0.16
 -5 12 4 0.13 0.16
 -5 12 5 0.82 0.13
 -5 12 6 0.14 0.16
 -5 13 -2 0.11 0.19
 -5 13 -1 0.46 0.13
 -5 13 0 0.16 0.18
 -5 13 1 0.2 0.17
 -5 13 2 0.14 0.21
 -5 13 3 2.74 0.21
 -5 13 4 0.12 0.18
 -5 13 5 1.67 0.13
 -5 14 1 0.06 0.14
 -5 14 2 0.17 0.23
 -4 0 -2 12.86 0.32
 -4 0 0 190.22 1.73
 -4 0 2 111.96 1.3
 -4 0 4 1.91 0.19
 -4 0 6 5.89 0.19
 -4 0 8 7.7 0.24
 -4 0 10 0.56 0.16
 -4 0 12 3.01 0.2
 -4 1 -3 0.44 0.14
 -4 1 -2 17.66 1.81
 -4 1 -1 0.02 0.09
 -4 1 0 1.18 0.1
 -4 1 1 13.16 0.24
 -4 1 2 41.42 0.58
 -4 1 3 6.88 0.13
 -4 1 4 2.83 0.1
 -4 1 5 4.43 0.12
 -4 1 6 6.05 0.14
 -4 1 7 3.14 0.13
 -4 1 8 0.08 0.21
 -4 1 9 0.18 0.12
 -4 1 10 3.21 0.26
 -4 1 11 0.17 0.15
 -4 1 12 0.15 0.15
 -4 2 -3 0.16 0.12
 -4 2 -2 1.22 0.2
 -4 2 -1 53.28 0.68
 -4 2 0 1.75 0.14
 -4 2 1 125.19 1.43
 -4 2 2 3.59 0.1
 -4 2 3 14.41 0.28
 -4 2 4 25.51 0.59
 -4 2 5 1.04 0.11
 -4 2 6 1.78 0.12
 -4 2 7 8.17 0.16
 -4 2 8 1.97 0.14
 -4 2 9 0.72 0.11
 -4 2 10 0.37 0.12
 -4 2 11 1.93 0.15
 -4 2 12 0.03 0.14
 -4 3 -3 22.35 2.73
 -4 3 -2 3.48 0.52
 -4 3 -1 38.97 0.71
 -4 3 0 2.7 0.3
 -4 3 1 6.2 0.19
 -4 3 2 0.14 0.11
 -4 3 3 38.25 0.59
 -4 3 4 1.73 0.11
 -4 3 5 0.14 0.16
 -4 3 6 0.79 0.12
 -4 3 7 0.11 0.19
 -4 3 8 0.11 0.16
 -4 3 9 7.64 0.15
 -4 3 10 0.02 0.1
 -4 3 11 2.84 0.13
 -4 3 12 0.06 0.19
 -4 4 -3 4.91 0.26
 -4 4 -2 3.75 0.27
 -4 4 -1 0.83 0.1
 -4 4 0 26.1 1.36
 -4 4 1 2.5 0.1
 -4 4 2 13.51 0.27
 -4 4 3 26.04 0.84
 -4 4 4 0.54 0.15
 -4 4 5 20.92 0.37
 -4 4 6 2.16 0.12
 -4 4 7 1.37 0.13
 -4 4 8 1.68 0.11
 -4 4 9 3.29 0.13
 -4 4 10 0.07 0.21
 -4 4 11 0.13 0.16
 -4 4 12 0.46 0.12
 -4 5 -3 0.86 0.12
 -4 5 -2 42.23 0.7
 -4 5 -1 4.13 0.13
 -4 5 0 7.38 0.26
 -4 5 1 1.1 0.1
 -4 5 2 20.1 0.35
 -4 5 3 5.38 0.18
 -4 5 4 12.29 0.21
 -4 5 5 0.65 0.12
 -4 5 6 1.48 0.13
 -4 5 7 2.47 0.14
 -4 5 8 7.25 0.23
 -4 5 9 0.14 0.14
 -4 5 10 6.3 0.47
 -4 5 11 0.12 0.18
 -4 6 -3 1.02 0.13
 -4 6 -2 0.22 0.15
 -4 6 -1 0.62 0.11
 -4 6 0 9.61 0.18
 -4 6 1 0.16 0.12
 -4 6 2 0.14 0.15
 -4 6 3 0.05 0.16
 -4 6 4 17.7 0.58
 -4 6 5 0.99 0.12
 -4 6 6 0.38 0.13
 -4 6 7 0.36 0.16
 -4 6 8 4.41 0.13
 -4 6 9 0.06 0.19
 -4 6 10 0.3 0.13
 -4 6 11 0.03 0.11
 -4 7 -3 12.14 0.38
 -4 7 -2 0.57 0.12
 -4 7 -1 12.3 0.23
 -4 7 0 0.12 0.18
 -4 7 1 0.13 0.16
 -4 7 2 9.91 0.25
 -4 7 3 6.41 0.34
 -4 7 4 0.06 0.19
 -4 7 5 3.57 0.36
 -4 7 6 9.98 0.55
 -4 7 7 4.76 0.13
 -4 7 8 1.8 0.13
 -4 7 9 5.01 0.17
 -4 7 10 0.13 0.2
 -4 7 11 0.65 0.13
 -4 8 -3 0.53 0.2
 -4 8 -2 0.42 0.19
 -4 8 -1 4.66 0.15
 -4 8 0 2.9 0.14
 -4 8 1 9.04 0.18
 -4 8 2 1.11 0.13
 -4 8 3 0.22 0.13
 -4 8 4 1.49 0.16
 -4 8 5 0.48 0.1
 -4 8 6 0.67 0.11
 -4 8 7 1.86 0.11
 -4 8 8 0.37 0.12
 -4 8 9 0.51 0.16
 -4 8 10 0.05 0.16
 -4 9 -3 0.7 0.11
 -4 9 -2 1.15 0.14
 -4 9 -1 0.05 0.16
 -4 9 0 0.22 0.18
 -4 9 1 5.11 0.16
 -4 9 2 0.18 0.18
 -4 9 3 2.26 0.25
 -4 9 4 0.58 0.11
 -4 9 5 5.8 0.15
 -4 9 6 2.46 0.16
 -4 9 7 6.51 0.69
 -4 9 8 2.36 0.13
 -4 9 9 0.27 0.13
 -4 9 10 0.18 0.16
 -4 10 -3 2.09 0.12
 -4 10 -2 0.82 0.11
 -4 10 -1 0.47 0.11
 -4 10 0 6.23 0.14
 -4 10 1 2.04 0.16
 -4 10 2 3.53 0.43
 -4 10 3 1.1 0.17
 -4 10 4 0.65 0.35
 -4 10 5 2.58 0.2
 -4 10 6 0.75 0.12
 -4 10 7 0.03 0.13
 -4 10 8 0.16 0.18
 -4 10 9 0.18 0.16
 -4 11 -3 0.03 0.13
 -4 11 -2 0.24 0.17
 -4 11 -1 0.66 0.12
 -4 11 0 0.65 0.12
 -4 11 1 0.06 0.17
 -4 11 2 2.12 0.22
 -4 11 3 0.45 0.11
 -4 11 4 0.24 0.12
 -4 11 5 0.22 0.17
 -4 11 6 3.57 0.13
 -4 11 7 0.87 0.12
 -4 11 8 0.37 0.12
 -4 12 -3 0.31 0.13
 -4 12 -2 0.48 0.12
 -4 12 -1 1.15 0.13
 -4 12 0 0.42 0.14
 -4 12 1 1.73 0.16
 -4 12 2 0.24 0.12
 -4 12 3 1.94 0.17
 -4 12 4 3.74 0.22
 -4 12 5 1.53 0.15
 -4 12 6 0.25 0.14
 -4 12 7 0.18 0.17
 -4 12 8 0.35 0.13
 -4 13 -3 0.05 0.18
 -4 13 -2 1.36 0.15
 -4 13 -1 0.15 0.17
 -4 13 0 0.17 0.19
 -4 13 1 0.22 0.15
 -4 13 2 0.92 0.12
 -4 13 3 0.15 0.2
 -4 13 4 0.22 0.17
 -4 13 5 0.46 0.14
 -4 13 6 0.41 0.15
 -4 14 -3 0.18 0.18
 -4 14 -2 0.41 0.21
 -4 14 -1 0.04 0.17
 -4 14 0 0.24 0.2
 -4 14 1 0.2 0.14
 -4 14 2 0.25 0.14
 -4 14 3 2.09 0.13
 -4 14 4 1.24 0.13
 -4 14 5 0.91 0.13
 -4 15 0 0.15 0.2
 -4 15 1 0.03 0.11
 -4 15 2 0.06 0.23
 -3 0 -1 52.39 0.8
 -3 0 1 1.9 0.1
 -3 0 3 89.35 1.07
 -3 0 5 1.82 0.13
 -3 0 7 10.32 0.29
 -3 0 9 0.29 0.17
 -3 0 11 3.69 0.2
 -3 1 -2 22.71 2.11
 -3 1 -1 21.48 1.42
 -3 1 0 158.13 7.33
 -3 1 1 264.87 10.24
 -3 1 2 152.03 4.91
 -3 1 3 16.98 0.26
 -3 1 4 1.24 0.54
 -3 1 5 42.43 1
 -3 1 6 16.5 0.32
 -3 1 7 5.2 0.13
 -3 1 8 3.19 0.13
 -3 1 9 0.13 0.13
 -3 1 10 1.61 0.18
 -3 1 11 0.58 0.12
 -3 1 12 1.51 0.09
 -3 2 -2 4.24 0.3
 -3 2 -1 16.16 0.68
 -3 2 0 21.39 0.57
 -3 2 1 4.43 0.16
 -3 2 2 47.59 1.33
 -3 2 3 79.49 2.66
 -3 2 4 47.99 0.9
 -3 2 5 15.44 0.29
 -3 2 6 1.07 0.22
 -3 2 7 0.07 0.19
 -3 2 8 0.48 0.12
 -3 2 9 0.23 0.19
 -3 2 10 2.62 0.12
 -3 2 11 0.19 0.17
 -3 2 12 1.04 0.1
 -3 3 -2 14.19 0.27
 -3 3 -1 33.37 2.13
 -3 3 0 42.01 3.88
 -3 3 1 33.5 0.48
 -3 3 2 64.29 0.88
 -3 3 3 5.09 0.12
 -3 3 4 18.15 0.29
 -3 3 5 0.83 0.16
 -3 3 6 14.3 0.25
 -3 3 7 4.26 0.13
 -3 3 8 2.23 0.21
 -3 3 9 4.67 0.13
 -3 3 10 0.85 0.11
 -3 3 11 1.97 0.1
 -3 3 12 0.57 0.1
 -3 4 -2 12.9 0.22
 -3 4 -1 3.89 2.38
 -3 4 0 8.44 0.46
 -3 4 1 13.87 0.63
 -3 4 2 86.61 0.77
 -3 4 3 62.75 0.82
 -3 4 4 91.6 0.87
 -3 4 5 15.55 0.4
 -3 4 6 1.32 0.19
 -3 4 7 0.88 0.11
 -3 4 8 0.27 0.17
 -3 4 9 1.39 0.11
 -3 4 10 0.63 0.17
 -3 4 11 0.74 0.1
 -3 4 12 0.06 0.16
 -3 5 -2 21.98 0.34
 -3 5 -1 1.25 0.1
 -3 5 0 0.43 0.09
 -3 5 1 24.14 0.78
 -3 5 2 0.95 0.09
 -3 5 3 0.05 0.14
 -3 5 4 2.89 0.11
 -3 5 5 10.24 0.2
 -3 5 6 1.21 0.11
 -3 5 7 0.44 0.12
 -3 5 8 2.21 0.15
 -3 5 9 3.75 0.18
 -3 5 10 1.91 0.12
 -3 5 11 0.11 0.14
 -3 5 12 0.13 0.12
 -3 6 -2 0.07 0.15
 -3 6 -1 16.22 0.56
 -3 6 0 13.18 0.9
 -3 6 1 4.67 0.11
 -3 6 2 30.5 0.54
 -3 6 3 79.78 0.88
 -3 6 4 23.98 0.95
 -3 6 5 11.48 0.22
 -3 6 6 14.05 0.26
 -3 6 7 1.74 0.29
 -3 6 8 4.64 0.38
 -3 6 9 0.2 0.12
 -3 6 10 0.36 0.1
 -3 6 11 0.57 0.1
 -3 6 12 0.18 0.16
 -3 7 -2 2.13 0.14
 -3 7 -1 0.03 0.11
 -3 7 0 0.36 0.11
 -3 7 1 19.32 0.47
 -3 7 2 0.67 0.27
 -3 7 3 0.65 0.12
 -3 7 4 1.61 0.11
 -3 7 5 12.43 1.76
 -3 7 6 0.04 0.16
 -3 7 7 0.71 0.19
 -3 7 8 1.61 0.14
 -3 7 9 1.12 0.12
 -3 7 10 0.25 0.13
 -3 7 11 0.12 0.17
 -3 8 -2 1.11 0.25
 -3 8 -1 8.4 0.31
 -3 8 0 2.05 0.11
 -3 8 1 16.47 0.52
 -3 8 2 10.61 0.21
 -3 8 3 6.68 0.23
 -3 8 4 8.97 0.23
 -3 8 5 11.47 0.72
 -3 8 6 0.85 0.13
 -3 8 7 11.47 0.84
 -3 8 8 0.33 0.15
 -3 8 9 1.22 0.27
 -3 8 10 0.46 0.1
 -3 8 11 0.31 0.1
 -3 9 -2 0.23 0.14
 -3 9 -1 1.48 0.12
 -3 9 0 13.3 0.25
 -3 9 1 0.17 0.14
 -3 9 2 12.98 0.24
 -3 9 3 0.07 0.22
 -3 9 4 3.13 0.14
 -3 9 5 0.14 0.15
 -3 9 6 5.54 0.61
 -3 9 7 0.2 0.12
 -3 9 8 0.07 0.2
 -3 9 9 0.15 0.2
 -3 9 10 0.18 0.12
 -3 10 -2 0.75 0.11
 -3 10 -1 0.39 0.34
 -3 10 0 9.71 0.46
 -3 10 1 0.05 0.18
 -3 10 2 1.04 0.16
 -3 10 3 0.62 0.39
 -3 10 4 0.33 0.11
 -3 10 5 0.59 0.11
 -3 10 6 6.19 0.29
 -3 10 7 0.76 0.13
 -3 10 8 2.87 0.38
 -3 10 9 0.16 0.12
 -3 10 10 0.14 0.13
 -3 11 -2 7.5 0.22
 -3 11 -1 1.46 0.12
 -3 11 0 1.68 0.1
 -3 11 1 7.19 0.22
 -3 11 2 0.07 0.19
 -3 11 3 0.07 0.19
 -3 11 4 0.65 0.11
 -3 11 5 3.44 0.19
 -3 11 6 0.3 0.12
 -3 11 7 0.36 0.23
 -3 11 8 0.68 0.2
 -3 11 9 0.01 0.05
 -3 12 -2 0.52 0.11
 -3 12 -1 2.66 0.25
 -3 12 0 0.16 0.16
 -3 12 1 0.5 0.12
 -3 12 2 0.21 0.12
 -3 12 3 1.22 0.12
 -3 12 4 0.92 0.12
 -3 12 5 0.33 0.13
 -3 12 6 0.33 0.13
 -3 12 7 1.81 0.12
 -3 12 8 0.04 0.15
 -3 13 -2 0.11 0.18
 -3 13 -1 4.06 0.14
 -3 13 0 0.33 0.12
 -3 13 1 0.14 0.17
 -3 13 2 0.25 0.13
 -3 13 3 0.29 0.2
 -3 13 4 0.27 0.13
 -3 13 5 0.72 0.12
 -3 13 6 0.17 0.13
 -3 13 7 0.3 0.17
 -3 14 -2 0.31 0.17
 -3 14 -1 0.68 0.18
 -3 14 0 0.35 0.13
 -3 14 1 0.71 0.55
 -3 14 2 0.66 0.12
 -3 14 3 0.69 0.14
 -3 14 4 0.73 0.13
 -3 14 5 0.32 0.12
 -3 14 6 0.16 0.18
 -3 15 -2 2.22 0.16
 -3 15 -1 0.21 0.18
 -3 15 0 0.24 0.13
 -3 15 1 0.21 0.14
 -3 15 2 0.11 0.19
 -3 15 3 0.2 0.17
 -3 15 4 0.45 0.17
 -2 0 0 66.77 0.71
 -2 0 2 202.43 1.33
 -2 0 4 78.66 0.95
 -2 0 6 194.44 1.79
 -2 0 8 24.28 0.41
 -2 0 10 0.1 0.16
 -2 0 12 0.19 0.17
 -2 1 -1 54.29 2.81
 -2 1 0 95.89 2.65
 -2 1 1 129.84 5.23
 -2 1 2 8.85 0.16
 -2 1 3 10.23 0.29
 -2 1 4 154.95 2.02
 -2 1 5 10.13 0.19
 -2 1 6 3.03 0.16
 -2 1 7 0.53 0.1
 -2 1 8 5.11 0.14
 -2 1 9 0.22 0.11
 -2 1 10 0.11 0.15
 -2 1 11 1.3 0.09
 -2 1 12 0.66 0.12
 -2 1 13 0.22 0.15
 -2 2 -1 9.93 0.36
 -2 2 0 14.17 0.27
 -2 2 1 101.95 1.28
 -2 2 2 102.25 1.36
 -2 2 3 0.58 0.16
 -2 2 4 23.36 0.41
 -2 2 5 138.99 1.45
 -2 2 6 0.09 0.16
 -2 2 7 58.68 0.78
 -2 2 8 1.31 0.14
 -2 2 9 1.52 0.09
 -2 2 10 1.8 0.08
 -2 2 11 0.1 0.16
 -2 2 12 0.14 0.17
 -2 3 -1 4.29 0.38
 -2 3 0 5.28 0.33
 -2 3 1 0.04 0.11
 -2 3 2 1.7 0.07
 -2 3 3 229.86 6.72
 -2 3 4 0.16 0.12
 -2 3 5 80.44 0.78
 -2 3 6 0.26 0.18
 -2 3 7 4.21 0.17
 -2 3 8 1.73 0.15
 -2 3 9 5.22 0.12
 -2 3 10 1.34 0.09
 -2 3 11 0.07 0.14
 -2 3 12 0.39 0.13
 -2 4 -1 97.66 4.26
 -2 4 0 0.12 0.09
 -2 4 1 40.06 0.95
 -2 4 2 4.85 0.13
 -2 4 3 114.41 2.12
 -2 4 4 16.03 0.54
 -2 4 5 0.06 0.16
 -2 4 6 24.21 0.71
 -2 4 7 0.17 0.13
 -2 4 8 2.51 0.1
 -2 4 9 4.26 0.09
 -2 4 10 0.07 0.14
 -2 4 11 0.99 0.1
 -2 4 12 0.13 0.16
 -2 5 -1 11.04 0.63
 -2 5 0 4.83 0.2
 -2 5 1 20.48 0.43
 -2 5 2 75.4 0.7
 -2 5 3 1.89 0.23
 -2 5 4 123.62 3.47
 -2 5 5 2.72 0.21
 -2 5 6 2.35 0.31
 -2 5 7 2.57 0.19
 -2 5 8 8.78 0.27
 -2 5 9 2.02 0.07
 -2 5 10 1.33 0.1
 -2 5 11 0.08 0.17
 -2 5 12 0.1 0.15
 -2 6 -1 0.08 0.13
 -2 6 0 4.93 0.11
 -2 6 1 0.39 0.09
 -2 6 2 58.33 2.44
 -2 6 3 1.18 0.1
 -2 6 4 3.12 0.21
 -2 6 5 0.13 0.15
 -2 6 6 7.45 0.15
 -2 6 7 0.27 0.11
 -2 6 8 0.19 0.11
 -2 6 9 0.1 0.14
 -2 6 10 1.83 0.15
 -2 6 11 0.26 0.12
 -2 6 12 0.06 0.13
 -2 7 -1 25.52 0.6
 -2 7 0 68.41 0.74
 -2 7 1 36.18 0.98
 -2 7 2 11.85 0.36
 -2 7 3 57.48 2.07
 -2 7 4 4.97 0.13
 -2 7 5 11.62 0.35
 -2 7 6 0.04 0.15
 -2 7 7 1.09 0.13
 -2 7 8 2.92 0.21
 -2 7 9 1.74 0.25
 -2 7 10 0.05 0.16
 -2 7 11 0.26 0.1
 -2 8 -1 6.23 0.13
 -2 8 0 0.03 0.11
 -2 8 1 4.68 0.12
 -2 8 2 6.45 0.13
 -2 8 3 2.84 0.12
 -2 8 4 0.32 0.14
 -2 8 5 9.41 0.23
 -2 8 6 5.96 0.13
 -2 8 7 4.04 0.1
 -2 8 8 0.63 0.09
 -2 8 9 0.19 0.15
 -2 8 10 0.47 0.1
 -2 8 11 0.06 0.16
 -2 9 -1 26.57 0.56
 -2 9 0 16.55 0.42
 -2 9 1 43.79 1.59
 -2 9 2 14.52 0.53
 -2 9 3 0.26 0.12
 -2 9 4 2.34 0.17
 -2 9 5 0.72 0.13
 -2 9 6 0.12 0.16
 -2 9 7 1.78 0.13
 -2 9 8 0.1 0.16
 -2 9 9 0.28 0.2
 -2 9 10 0.09 0.17
 -2 10 -1 3.41 0.13
 -2 10 0 0.57 0.21
 -2 10 1 3.21 0.13
 -2 10 2 0.06 0.2
 -2 10 3 3.49 0.14
 -2 10 4 5.52 0.22
 -2 10 5 2.43 0.2
 -2 10 6 6.88 0.44
 -2 10 7 1.8 0.18
 -2 10 8 0.87 0.09
 -2 10 9 0.38 0.23
 -2 10 10 0.13 0.17
 -2 11 -1 2.4 0.14
 -2 11 0 15.08 1.22
 -2 11 1 4.08 0.35
 -2 11 2 3.59 0.15
 -2 11 3 0.2 0.11
 -2 11 4 0.3 0.15
 -2 11 5 0.82 0.18
 -2 11 6 0.11 0.16
 -2 11 7 0.32 0.12
 -2 11 8 0.18 0.13
 -2 11 9 0.47 0.2
 -2 12 -1 2.25 0.12
 -2 12 0 0.39 0.12
 -2 12 1 0.05 0.16
 -2 12 2 4.32 0.13
 -2 12 3 3.12 0.17
 -2 12 4 0.42 0.18
 -2 12 5 3.42 0.25
 -2 12 6 0.64 0.1
 -2 12 7 0.94 0.12
 -2 12 8 0.28 0.17
 -2 12 9 0.29 0.12
 -2 13 -1 0.27 0.12
 -2 13 0 1.33 0.12
 -2 13 1 0.41 0.11
 -2 13 2 0.03 0.11
 -2 13 3 0.06 0.19
 -2 13 4 2.25 0.13
 -2 13 5 0.1 0.16
 -2 13 6 0.11 0.17
 -2 13 7 0.22 0.12
 -2 13 8 0.99 0.16
 -2 14 -1 1.77 0.13
 -2 14 0 0.19 0.14
 -2 14 1 0.56 0.12
 -2 14 2 1.66 0.11
 -2 14 3 1.26 0.12
 -2 14 4 1.12 0.1
 -2 14 5 0.06 0.16
 -2 14 6 0.14 0.14
 -2 15 -1 0.02 0.08
 -2 15 0 0.45 0.13
 -2 15 1 0.35 0.12
 -2 15 2 0.45 0.13
 -2 15 3 0.61 0.12
 -2 15 4 0.05 0.15
 -2 15 5 0.31 0.11
 -2 16 -1 0.48 0.11
 -2 16 0 0.14 0.17
 -2 16 1 0.3 0.14
 -2 16 2 0.19 0.14
 -1 0 1 671.72 4.49
 -1 0 3 7.21 0.2
 -1 0 5 113.21 0.84
 -1 0 7 2.13 0.15
 -1 0 9 2.92 0.19
 -1 0 11 0.16 0.19
 -1 0 13 0.32 0.17
 -1 1 0 687.51 28.78
 -1 1 1 326.26 6.17
 -1 1 2 314.4 6.64
 -1 1 3 15.98 0.27
 -1 1 4 67.63 0.57
 -1 1 5 23.72 0.3
 -1 1 6 60.69 0.91
 -1 1 7 42.1 3.39
 -1 1 8 7.84 0.15
 -1 1 9 0.58 0.13
 -1 1 10 0.66 0.11
 -1 1 11 1.5 0.12
 -1 1 12 0.73 0.12
 -1 1 13 0.05 0.16
 -1 2 0 78.74 5.67
 -1 2 1 3.28 0.09
 -1 2 2 49.57 1.45
 -1 2 3 2.84 0.2
 -1 2 4 85.46 4.36
 -1 2 5 9.53 0.15
 -1 2 6 19.02 0.43
 -1 2 7 4.12 0.42
 -1 2 8 2.61 0.21
 -1 2 9 8.3 0.62
 -1 2 10 1.14 0.18
 -1 2 11 0.75 0.11
 -1 2 12 0.15 0.17
 -1 3 0 312.05 5.76
 -1 3 1 231.13 4.38
 -1 3 2 74.01 2.32
 -1 3 3 189.61 3.53
 -1 3 4 36.51 0.39
 -1 3 5 49.83 0.82
 -1 3 6 27.41 1.09
 -1 3 7 6.05 0.56
 -1 3 8 8.71 0.37
 -1 3 9 0.19 0.11
 -1 3 10 0.45 0.11
 -1 3 11 0.17 0.14
 -1 3 12 0.2 0.13
 -1 4 0 0.4 0.06
 -1 4 1 4.83 0.09
 -1 4 2 45 1.38
 -1 4 3 6.73 0.11
 -1 4 4 14.93 0.34
 -1 4 5 5 0.09
 -1 4 6 0.1 0.15
 -1 4 7 2.95 0.49
 -1 4 8 19.12 2.56
 -1 4 9 4.51 0.33
 -1 4 10 6.37 0.18
 -1 4 11 0.26 0.13
 -1 4 12 0.13 0.15
 -1 5 0 2.81 0.12
 -1 5 1 0.09 0.09
 -1 5 2 105.42 3.36
 -1 5 3 73.01 1.46
 -1 5 4 53.85 0.51
 -1 5 5 0.15 0.1
 -1 5 6 0.29 0.09
 -1 5 7 11.93 0.74
 -1 5 8 2.35 1.74
 -1 5 9 0.25 0.14
 -1 5 10 0.1 0.16
 -1 5 11 0.23 0.15
 -1 5 12 0.09 0.18
 -1 6 0 43.45 2.3
 -1 6 1 37.26 1.26
 -1 6 2 14.81 0.39
 -1 6 3 0.96 0.66
 -1 6 4 0.49 0.09
 -1 6 5 11.85 0.23
 -1 6 6 10.32 0.65
 -1 6 7 4.12 0.14
 -1 6 8 6.8 0.22
 -1 6 9 10.07 0.28
 -1 6 10 1.5 0.13
 -1 6 11 0.46 0.13
 -1 6 12 0.32 0.14
 -1 7 0 4.44 0.24
 -1 7 1 0.12 0.12
 -1 7 2 9.07 0.27
 -1 7 3 26.47 0.59
 -1 7 4 1.76 0.1
 -1 7 5 0.12 0.14
 -1 7 6 2.91 0.1
 -1 7 7 6.32 0.26
 -1 7 8 0.96 0.09
 -1 7 9 0 0.04
 -1 7 10 0.07 0.19
 -1 7 11 0.88 0.19
 -1 8 0 3.39 0.34
 -1 8 1 62.01 3.29
 -1 8 2 7.12 0.26
 -1 8 3 2.15 0.09
 -1 8 4 5.53 0.13
 -1 8 5 15.44 0.53
 -1 8 6 0.99 0.1
 -1 8 7 7.95 0.23
 -1 8 8 2.66 0.27
 -1 8 9 1.15 0.22
 -1 8 10 0.48 0.12
 -1 8 11 0.66 0.12
 -1 9 0 24.82 1.11
 -1 9 1 0.92 0.15
 -1 9 2 0.19 0.11
 -1 9 3 3.35 0.1
 -1 9 4 0.17 0.17
 -1 9 5 3.16 0.14
 -1 9 6 7.4 0.3
 -1 9 7 0.47 0.09
 -1 9 8 1.41 0.1
 -1 9 9 0.01 0.08
 -1 9 10 1.01 0.12
 -1 9 11 0.19 0.19
 -1 10 0 27.19 1.71
 -1 10 1 3.51 0.1
 -1 10 2 14.28 0.55
 -1 10 3 0.24 0.15
 -1 10 4 4.67 0.15
 -1 10 5 1.86 0.23
 -1 10 6 7.4 0.4
 -1 10 7 0.2 0.14
 -1 10 8 0.23 0.11
 -1 10 9 0.04 0.12
 -1 10 10 0.18 0.13
 -1 11 0 0.22 0.13
 -1 11 1 2.68 0.11
 -1 11 2 12.81 0.4
 -1 11 3 0.05 0.18
 -1 11 4 12.17 0.75
 -1 11 5 1.9 0.11
 -1 11 6 0.87 0.09
 -1 11 7 2.05 0.1
 -1 11 8 0.02 0.07
 -1 11 9 0.22 0.12
 -1 12 0 0.35 0.09
 -1 12 1 7.18 0.12
 -1 12 2 0.02 0.09
 -1 12 3 0.08 0.19
 -1 12 4 0.08 0.15
 -1 12 5 2.96 0.12
 -1 12 6 0.11 0.17
 -1 12 7 0.1 0.16
 -1 12 8 0.19 0.12
 -1 12 9 0.41 0.1
 -1 13 0 0.43 0.09
 -1 13 1 3.44 0.22
 -1 13 2 0.06 0.13
 -1 13 3 13.9 0.7
 -1 13 4 0.11 0.18
 -1 13 5 2.95 0.13
 -1 13 6 0.41 0.13
 -1 13 7 0.11 0.16
 -1 13 8 0.09 0.15
 -1 14 0 0.2 0.13
 -1 14 1 0.63 0.09
 -1 14 2 0.36 0.1
 -1 14 3 0.32 0.13
 -1 14 4 0.35 0.13
 -1 14 5 0.2 0.16
 -1 14 6 0.15 0.17
 -1 14 7 0.1 0.16
 -1 15 0 0.13 0.16
 -1 15 1 0.11 0.17
 -1 15 2 4.13 0.11
 -1 15 3 0.04 0.16
 -1 15 4 3.03 0.14
 -1 15 5 0.06 0.18
 -1 16 0 0.68 0.1
 -1 16 1 0.07 0.16
 -1 16 2 0.6 0.11
 -1 16 3 0.18 0.13
 0 0 2 936.92 6.07
 0 0 4 16.15 0.45
 0 0 6 1.94 0.14
 0 0 8 1.52 0.16
 0 0 10 3.68 0.17
 0 0 12 3.32 0.19
 0 1 1 48.24 1.52
 0 1 2 424.53 10.62
 0 1 3 6.03 0.3
 0 1 4 1.47 0.07
 0 1 5 32.08 0.47
 0 1 6 19.65 0.31
 0 1 7 6.42 0.39
 0 1 8 0.89 0.12
 0 1 9 0.8 0.27
 0 1 10 3.73 0.12
 0 1 11 0.6 0.22
 0 1 12 0.17 0.17
 0 2 0 2.12 0.06
 0 2 1 1952.95 88.65
 0 2 2 40.35 1.83
 0 2 3 0.06 0.08
 0 2 4 56.58 1.61
 0 2 5 2.79 0.1
 0 2 6 0.05 0.15
 0 2 7 4.29 0.4
 0 2 8 7.13 0.92
 0 2 9 0.2 0.11
 0 2 10 0.93 0.12
 0 2 11 3.42 0.23
 0 2 12 0.05 0.16
 0 3 1 308.91 5.12
 0 3 2 11.23 0.47
 0 3 3 250.44 12.56
 0 3 4 6.17 0.45
 0 3 5 0.11 0.1
 0 3 6 2.15 0.19
 0 3 7 0.53 0.11
 0 3 8 0.28 0.18
 0 3 9 9.52 0.63
 0 3 10 0.16 0.13
 0 3 11 1.39 0.12
 0 3 12 0.19 0.16
 0 4 0 323.6 1.75
 0 4 1 17.75 0.49
 0 4 2 25.6 1.14
 0 4 3 75.1 3.68
 0 4 4 0.57 0.18
 0 4 5 14.75 0.91
 0 4 6 2.17 0.15
 0 4 7 12.42 1.34
 0 4 8 1 0.48
 0 4 9 6.87 0.37
 0 4 10 0.26 0.12
 0 4 11 0.07 0.14
 0 4 12 0.31 0.14
 0 5 1 32.48 0.9
 0 5 2 231.98 4.84
 0 5 3 14.76 0.91
 0 5 4 49.46 1.72
 0 5 5 4.83 0.37
 0 5 6 4.53 0.16
 0 5 7 2.64 0.15
 0 5 8 10.75 1.06
 0 5 9 0.03 0.13
 0 5 10 4.23 0.15
 0 5 11 0.12 0.17
 0 5 12 0.11 0.16
 0 6 0 43.66 0.81
 0 6 1 0.16 0.07
 0 6 2 3.3 0.11
 0 6 3 1.19 0.09
 0 6 4 37.31 1.27
 0 6 5 3.95 0.24
 0 6 6 0.88 0.11
 0 6 7 1.28 0.13
 0 6 8 9.45 0.36
 0 6 9 0.02 0.08
 0 6 10 0.35 0.19
 0 6 11 0.27 0.18
 0 6 12 0.07 0.2
 0 7 1 23.27 0.46
 0 7 2 26.15 0.67
 0 7 3 43.47 1.64
 0 7 4 4.81 0.45
 0 7 5 13.29 0.59
 0 7 6 23.01 1.31
 0 7 7 8.56 0.5
 0 7 8 1.23 0.14
 0 7 9 4.03 0.16
 0 7 10 0.18 0.15
 0 7 11 0.27 0.12
 0 8 0 25.85 0.52
 0 8 1 22.34 0.33
 0 8 2 1.17 0.08
 0 8 3 2.32 0.09
 0 8 4 7.64 0.44
 0 8 5 0.84 0.12
 0 8 6 1.61 0.13
 0 8 7 2.71 0.24
 0 8 8 0.03 0.13
 0 8 9 0.21 0.13
 0 8 10 0.4 0.28
 0 8 11 0.5 0.12
 0 9 1 5.5 0.12
 0 9 2 1.53 0.09
 0 9 3 0.12 0.15
 0 9 4 4.25 0.17
 0 9 5 22.43 1.35
 0 9 6 5.14 0.13
 0 9 7 8.21 0.16
 0 9 8 1.92 0.12
 0 9 9 0.03 0.11
 0 9 10 0.07 0.2
 0 10 0 26.08 0.6
 0 10 1 6.48 0.31
 0 10 2 8.01 0.22
 0 10 3 5.76 0.29
 0 10 4 0.28 0.11
 0 10 5 4.67 0.13
 0 10 6 0.22 0.15
 0 10 7 0.04 0.15
 0 10 8 0.08 0.18
 0 10 9 0.04 0.16
 0 10 10 0.67 0.13
 0 11 1 1.3 0.13
 0 11 2 0.87 0.11
 0 11 3 1.04 0.11
 0 11 4 3.98 0.1
 0 11 5 0.88 0.11
 0 11 6 6.64 0.33
 0 11 7 0.94 0.11
 0 11 8 0.22 0.15
 0 11 9 0.19 0.13
 0 12 0 1.38 0.17
 0 12 1 5.96 0.23
 0 12 2 1 0.08
 0 12 3 3.35 0.1
 0 12 4 6.01 0.11
 0 12 5 0.62 0.09
 0 12 6 0.14 0.19
 0 12 7 0.25 0.13
 0 12 8 0.67 0.13
 0 13 1 0.04 0.14
 0 13 2 3.95 0.1
 0 13 3 0.1 0.15
 0 13 4 0.22 0.11
 0 13 5 0.68 0.1
 0 13 6 0.34 0.13
 0 13 7 0.05 0.17
 0 13 8 0.04 0.15
 0 14 0 0.17 0.19
 0 14 1 0.62 0.24
 0 14 2 1.16 0.09
 0 14 3 2.93 0.1
 0 14 4 1.42 0.18
 0 14 5 0.46 0.11
 0 14 6 0.03 0.13
 0 14 7 0.31 0.12
 0 15 1 0.87 0.18
 0 15 2 0.2 0.13
 0 15 3 1.03 0.1
 0 15 4 0.16 0.13
 0 15 5 0.1 0.14
 0 16 0 0.4 0.19
 0 16 1 0.16 0.17
 0 16 2 0.76 0.13
 0 16 3 0.4 0.18
 1 0 1 0.19 0.06
 1 0 3 193.66 1.36
 1 0 5 0.72 0.12
 1 0 7 5.71 0.19
 1 0 9 2.18 0.16
 1 0 11 3.25 0.18
 1 1 1 748.21 28.34
 1 1 2 57.56 3.84
 1 1 3 0.03 0.09
 1 1 4 38.47 0.71
 1 1 5 62.12 0.93
 1 1 6 31.25 1
 1 1 7 3.88 0.13
 1 1 8 4.31 0.37
 1 1 9 0.08 0.2
 1 1 10 1.17 0.15
 1 1 11 0.47 0.12
 1 1 12 0.55 0.13
 1 2 1 182.55 6.23
 1 2 2 234.56 8.4
 1 2 3 235.75 10.14
 1 2 4 51.33 1.67
 1 2 5 12.5 0.21
 1 2 6 2.87 0.34
 1 2 7 1.1 0.14
 1 2 8 0.01 0.09
 1 2 9 0.07 0.19
 1 2 10 2.72 0.13
 1 2 11 0.26 0.21
 1 2 12 0.43 0.12
 1 3 1 2.88 0.14
 1 3 2 140.01 0.8
 1 3 3 5.97 0.15
 1 3 4 27.59 0.96
 1 3 5 9.34 0.35
 1 3 6 6.74 0.58
 1 3 7 9.86 0.68
 1 3 8 2.97 0.48
 1 3 9 4.18 0.29
 1 3 10 0.35 0.17
 1 3 11 0.76 0.12
 1 3 12 0.45 0.12
 1 4 1 54.03 1.13
 1 4 2 283.31 3.36
 1 4 3 110.37 2.72
 1 4 4 103.08 2.62
 1 4 5 8.61 0.62
 1 4 6 0.13 0.16
 1 4 7 0.04 0.12
 1 4 8 1.84 0.23
 1 4 9 0.65 0.11
 1 4 10 0.1 0.18
 1 4 11 0.41 0.27
 1 4 12 0.12 0.17
 1 5 1 111.72 1.37
 1 5 2 17.8 0.66
 1 5 3 1.07 0.09
 1 5 4 2.71 0.13
 1 5 5 5.2 0.34
 1 5 6 0.1 0.15
 1 5 7 2.66 0.45
 1 5 8 3.5 0.12
 1 5 9 3.13 0.1
 1 5 10 1.1 0.12
 1 5 11 0.08 0.19
 1 6 1 36.85 1.78
 1 6 2 52.95 2.12
 1 6 3 123.29 4.44
 1 6 4 24.34 2.01
 1 6 5 4.89 0.29
 1 6 6 7.46 0.58
 1 6 7 3.16 0.33
 1 6 8 0.96 0.11
 1 6 9 0.22 0.13
 1 6 10 0.27 0.17
 1 6 11 0.02 0.09
 1 7 1 43.35 2.32
 1 7 2 5.93 0.44
 1 7 3 0.39 0.1
 1 7 4 0.21 0.11
 1 7 5 15.09 0.43
 1 7 6 0.56 0.15
 1 7 7 0.25 0.15
 1 7 8 1.58 0.12
 1 7 9 0.68 0.16
 1 7 10 0.09 0.23
 1 7 11 0.1 0.17
 1 8 1 40.59 2.15
 1 8 2 19.69 1.61
 1 8 3 10.66 0.8
 1 8 4 7.21 0.36
 1 8 5 10.7 0.51
 1 8 6 1.2 0.13
 1 8 7 4.79 0.33
 1 8 8 0.18 0.13
 1 8 9 0.03 0.11
 1 8 10 0.39 0.12
 1 9 1 0.15 0.16
 1 9 2 6.88 0.44
 1 9 3 0.07 0.2
 1 9 4 12.26 0.43
 1 9 5 0.15 0.17
 1 9 6 6.78 0.14
 1 9 7 0.11 0.16
 1 9 8 0.1 0.17
 1 9 9 0.14 0.17
 1 9 10 0.01 0.05
 1 10 1 0.72 0.11
 1 10 2 1.44 0.19
 1 10 3 0.21 0.14
 1 10 4 0.83 0.13
 1 10 5 0.44 0.11
 1 10 6 4.81 0.2
 1 10 7 0.35 0.23
 1 10 8 0.7 0.19
 1 10 9 0.26 0.12
 1 11 1 7.81 0.53
 1 11 2 0.45 0.13
 1 11 3 0.58 0.1
 1 11 4 0.18 0.12
 1 11 5 5.45 0.14
 1 11 6 0.17 0.13
 1 11 7 0.37 0.12
 1 11 8 1.23 0.15
 1 11 9 0.1 0.17
 1 12 1 0.38 0.11
 1 12 2 1.53 0.11
 1 12 3 1.31 0.15
 1 12 4 1.04 0.1
 1 12 5 0.3 0.2
 1 12 6 0.08 0.17
 1 12 7 1.25 0.12
 1 12 8 0.15 0.18
 1 13 1 0.43 0.11
 1 13 2 0.14 0.17
 1 13 3 0.05 0.17
 1 13 4 0.52 0.12
 1 13 5 0.08 0.22
 1 13 6 0.2 0.16
 1 13 7 0.82 0.15
 1 14 1 0.09 0.18
 1 14 2 1.45 0.11
 1 14 3 0.96 0.12
 1 14 4 0.6 0.17
 1 14 5 0.11 0.18
 1 14 6 0.36 0.25
 1 15 1 0.22 0.11
 1 15 2 0.23 0.13
 1 15 3 0.06 0.18
 1 15 4 0.12 0.17
 1 15 5 0.09 0.18
 1 16 1 0.14 0.19
 1 16 2 0.08 0.21
 1 16 3 0.5 0.21
 2 0 2 12.13 0.28
 2 0 4 94.16 1.14
 2 0 6 92.51 1.37
 2 0 8 4.81 0.22
 2 0 10 0 0.11
 2 0 12 0.18 0.18
 2 1 2 32.28 2.56
 2 1 3 12.44 0.54
 2 1 4 70.99 2.71
 2 1 5 8.78 0.14
 2 1 6 0.68 0.1
 2 1 7 0.37 0.12
 2 1 8 1.52 0.13
 2 1 9 0.76 0.23
 2 1 10 0.15 0.14
 2 1 11 0.49 0.13
 2 1 12 0.24 0.19
 2 2 2 95.96 4.32
 2 2 3 2.16 0.08
 2 2 4 7.84 0.51
 2 2 5 83.76 4.51
 2 2 6 0.16 0.16
 2 2 7 19.88 1.65
 2 2 8 0.54 0.14
 2 2 9 1.55 1.03
 2 2 10 0.27 0.17
 2 2 11 0.14 0.2
 2 3 2 1.64 0.08
 2 3 3 126.72 7.14
 2 3 4 0.11 0.15
 2 3 5 15.26 0.88
 2 3 6 2.01 0.11
 2 3 7 6.65 0.23
 2 3 8 1.94 0.11
 2 3 9 2.12 0.57
 2 3 10 0.6 0.12
 2 3 11 0.1 0.19
 2 4 2 4.72 0.17
 2 4 3 48.33 0.62
 2 4 4 8.88 0.33
 2 4 5 0.13 0.15
 2 4 6 11.14 0.86
 2 4 7 0.14 0.17
 2 4 8 0.6 0.11
 2 4 9 0.86 0.14
 2 4 10 0.02 0.11
 2 4 11 0.12 0.18
 2 5 2 53.25 2.52
 2 5 3 5.44 0.11
 2 5 4 36.35 1.92
 2 5 5 4.76 3.45
 2 5 6 1.2 0.12
 2 5 7 2.26 0.45
 2 5 8 7.02 0.25
 2 5 9 0.56 0.09
 2 5 10 0.7 0.1
 2 5 11 0.11 0.16
 2 6 2 53.45 0.66
 2 6 3 0.09 0.15
 2 6 4 0.63 0.1
 2 6 5 0.03 0.13
 2 6 6 3.21 0.27
 2 6 7 0.18 0.15
 2 6 8 0.18 0.15
 2 6 9 0.2 0.14
 2 6 10 0.32 0.13
 2 6 11 0.19 0.17
 2 7 2 1.95 0.19
 2 7 3 22.27 0.78
 2 7 4 7.17 0.15
 2 7 5 0.79 0.2
 2 7 6 0.13 0.19
 2 7 7 2.84 0.2
 2 7 8 0.46 0.11
 2 7 9 1.55 0.16
 2 7 10 0.22 0.14
 2 8 2 1.18 0.23
 2 8 3 0.56 0.11
 2 8 4 1.3 0.12
 2 8 5 6.19 0.31
 2 8 6 2.83 0.12
 2 8 7 1.53 0.11
 2 8 8 0.13 0.19
 2 8 9 0.19 0.18
 2 8 10 0.41 0.13
 2 9 2 5.97 0.14
 2 9 3 1.19 0.12
 2 9 4 0.52 0.12
 2 9 5 2.03 0.11
 2 9 6 0.11 0.16
 2 9 7 0.13 0.18
 2 9 8 0.24 0.16
 2 9 9 0.09 0.19
 2 10 2 0.86 0.12
 2 10 3 1.01 0.13
 2 10 4 4.93 0.13
 2 10 5 1.9 0.12
 2 10 6 3.58 0.13
 2 10 7 0.3 0.13
 2 10 8 0.29 0.14
 2 10 9 0.44 0.13
 2 11 2 0.75 0.1
 2 11 3 0.17 0.13
 2 11 4 1.46 0.16
 2 11 5 0.1 0.17
 2 11 6 0.18 0.18
 2 11 7 0.38 0.13
 2 11 8 0.02 0.11
 2 12 2 5.14 0.13
 2 12 3 4 0.13
 2 12 4 0.24 0.12
 2 12 5 2.06 0.2
 2 12 6 0.21 0.18
 2 12 7 0.36 0.13
 2 12 8 0.28 0.17
 2 13 2 0.1 0.16
 2 13 3 0.15 0.16
 2 13 4 0.75 0.12
 2 13 5 0.04 0.16
 2 13 6 0.26 0.13
 2 13 7 0.04 0.14
 2 14 2 2.2 0.13
 2 14 3 1.83 0.13
 2 14 4 0.71 0.13
 2 14 5 0.04 0.15
 2 15 2 0.16 0.15
 2 15 3 0.45 0.11
 2 15 4 0.05 0.17
 3 0 3 13.17 0.37
 3 0 5 32.79 0.87
 3 0 7 0.29 0.2
 3 0 9 0.42 0.18
 3 0 11 0.05 0.2
 3 1 3 0.44 0.09
 3 1 4 13.77 0.65
 3 1 5 9.72 0.29
 3 1 6 7.53 0.15
 3 1 7 5.94 0.16
 3 1 8 0.1 0.19
 3 1 9 0.09 0.16
 3 1 10 0.69 0.12
 3 1 11 0.44 0.23
 3 2 3 1.3 0.26
 3 2 4 20.84 0.56
 3 2 5 0.05 0.17
 3 2 6 3.6 0.19
 3 2 7 2.9 0.14
 3 2 8 0.84 0.11
 3 2 9 1.61 0.14
 3 2 10 0.3 0.23
 3 2 11 0.01 0.05
 3 3 3 28.43 1.51
 3 3 4 0.81 0.17
 3 3 5 6.34 0.26
 3 3 6 10.01 0.64
 3 3 7 0.08 0.14
 3 3 8 1.76 0.21
 3 3 9 0.31 0.12
 3 3 10 0.04 0.16
 3 3 11 0.19 0.15
 3 4 3 0.16 0.14
 3 4 4 0.17 0.12
 3 4 5 0.26 0.11
 3 4 6 1.5 0.18
 3 4 7 1.43 0.12
 3 4 8 5.28 0.17
 3 4 9 0.93 0.12
 3 4 10 0.66 0.13
 3 4 11 0.02 0.09
 3 5 3 11.87 0.31
 3 5 4 8.22 0.73
 3 5 5 1.2 0.12
 3 5 6 0.15 0.18
 3 5 7 4.33 0.2
 3 5 8 0.2 0.17
 3 5 9 0.33 0.13
 3 5 10 0.05 0.17
 3 6 3 0.18 0.12
 3 6 4 4.22 0.3
 3 6 5 0.72 0.13
 3 6 6 4.95 0.26
 3 6 7 2.12 0.14
 3 6 8 1.74 0.24
 3 6 9 1.82 0.13
 3 6 10 0.21 0.15
 3 7 3 6.42 0.3
 3 7 4 0.14 0.19
 3 7 5 0.39 0.12
 3 7 6 1.7 0.11
 3 7 7 0.96 0.15
 3 7 8 0.71 0.21
 3 7 9 0.13 0.2
 3 7 10 0.21 0.17
 3 8 3 2.53 0.13
 3 8 4 2.11 0.13
 3 8 5 9.62 0.23
 3 8 6 0.22 0.11
 3 8 7 2.64 0.23
 3 8 8 0.54 0.18
 3 8 9 0.47 0.16
 3 9 3 1.74 0.14
 3 9 4 0.19 0.16
 3 9 5 0.8 0.11
 3 9 6 1.48 0.12
 3 9 7 0.16 0.15
 3 9 8 0.05 0.16
 3 9 9 0.23 0.13
 3 10 3 0.77 0.11
 3 10 4 4.98 0.13
 3 10 5 1.28 0.12
 3 10 6 2.73 0.23
 3 10 7 0.2 0.15
 3 10 8 0.08 0.22
 3 11 3 0.04 0.13
 3 11 4 3.11 0.25
 3 11 5 0.35 0.12
 3 11 6 0.12 0.2
 3 11 7 0.19 0.14
 3 12 3 0.21 0.13
 3 12 4 0.32 0.12
 3 12 5 1.04 0.12
 3 12 6 0.23 0.16
 3 12 7 0.02 0.08
 3 13 3 5.27 0.15
 3 13 4 0.05 0.17
 3 13 5 0.21 0.15
 3 13 6 0.12 0.18
 3 14 3 0.07 0.21
 3 14 4 0.15 0.14
 3 15 3 0.06 0.19
 4 0 4 4.33 0.18
 4 0 6 0.64 0.19
 4 0 8 0.16 0.19
 4 0 10 0.81 0.18
 4 1 4 0.05 0.17
 4 1 5 3.13 0.31
 4 1 6 1 0.13
 4 1 7 0.14 0.18
 4 1 8 0.47 0.11
 4 1 9 0.43 0.12
 4 1 10 0.55 0.13
 4 2 4 0.95 0.11
 4 2 5 1.47 0.12
 4 2 6 1.19 0.24
 4 2 7 0.12 0.18
 4 2 8 1.53 0.12
 4 2 9 0.27 0.14
 4 2 10 0.44 0.32
 4 3 4 1.57 0.31
 4 3 5 0.04 0.17
 4 3 6 0.07 0.19
 4 3 7 0.16 0.16
 4 3 8 0.11 0.18
 4 3 9 0.94 0.12
 4 3 10 0.06 0.2
 4 4 4 0.12 0.19
 4 4 5 0.11 0.17
 4 4 6 0.22 0.15
 4 4 7 3.97 0.13
 4 4 8 0.03 0.11
 4 4 9 0.87 0.12
 4 4 10 0.08 0.23
 4 5 4 8.95 0.75
 4 5 5 1.23 0.37
 4 5 6 0.68 0.12
 4 5 7 0.42 0.11
 4 5 8 0.71 0.12
 4 5 9 0.11 0.19
 4 6 4 1.85 0.13
 4 6 5 0.72 0.13
 4 6 6 1.27 0.11
 4 6 7 0.32 0.12
 4 6 8 1.79 0.13
 4 6 9 0.12 0.2
 4 7 4 2.25 0.11
 4 7 5 2.48 0.23
 4 7 6 3.01 0.34
 4 7 7 0.74 0.12
 4 7 8 0.08 0.23
 4 7 9 0.11 0.22
 4 8 4 2.61 0.12
 4 8 5 0.13 0.14
 4 8 6 0.36 0.13
 4 8 7 0.38 0.13
 4 8 8 0.03 0.13
 4 9 4 1.55 0.18
 4 9 5 4.4 0.14
 4 9 6 0.8 0.19
 4 9 7 0.68 0.13
 4 9 8 0.1 0.21
 4 10 4 0.08 0.21
 4 10 5 0.78 0.25
 4 10 6 0.07 0.21
 4 10 7 0.05 0.18
 4 11 4 1.2 0.15
 4 11 5 0.38 0.25
 4 11 6 1.04 0.25
 4 12 4 0.78 0.12
 4 12 5 0.13 0.18
 4 13 4 0.11 0.2
 5 0 5 0.19 0.17
 5 0 7 0.11 0.22
 5 0 9 0.4 0.19
 5 1 5 3.73 0.21
 5 1 6 2.65 0.24
 5 1 7 0.21 0.13
 5 1 8 0.35 0.13
 5 1 9 0.11 0.18
 5 2 5 0.09 0.21
 5 2 6 0.17 0.16
 5 2 7 0.25 0.13
 5 2 8 0.12 0.2
 5 2 9 0.22 0.16
 5 3 5 2.26 0.19
 5 3 6 0.28 0.14
 5 3 7 0.97 0.17
 5 3 8 0.2 0.15
 5 3 9 0.32 0.14
 5 4 5 0.56 0.11
 5 4 6 0.44 0.12
 5 4 7 0.2 0.14
 5 4 8 0.18 0.2
 5 4 9 0.08 0.22
 5 5 5 0.05 0.15
 5 5 6 0.07 0.2
 5 5 7 0.39 0.13
 5 5 8 0.36 0.13
 5 6 5 0.15 0.15
 5 6 6 0.29 0.13
 5 6 7 0.47 0.17
 5 6 8 0.18 0.2
 5 7 5 0.91 0.19
 5 7 6 0.07 0.2
 5 7 7 0.09 0.19
 5 7 8 0.28 0.14
 5 8 5 0.56 0.12
 5 8 6 0.19 0.19
 5 8 7 0.16 0.2
 5 9 5 0.04 0.15
 5 9 6 0.67 0.13
 5 9 7 0.06 0.15
 5 10 5 0.17 0.2
 5 10 6 0.38 0.16
 5 11 5 0.69 0.16
 6 0 6 2.29 0.18
 6 0 8 0.05 0.21
 6 1 6 0.22 0.13
 6 1 7 0.17 0.15
 6 1 8 0.05 0.17
 6 2 6 0.01 0.05
 6 2 7 0.49 0.13
 6 2 8 0.22 0.15
 6 3 6 0.41 0.13
 6 3 7 0.36 0.13
 6 4 6 0.51 0.13
 6 4 7 0.04 0.13
 6 5 6 0.28 0.14
 6 5 7 0.09 0.24
 6 6 6 0.17 0.2
 6 6 7 0.26 0.17
 6 7 6 0.03 0.13
 6 8 6 0.17 0.17

_iucr_refine_fcf_details
;
data_epoxide
_computing_structure_refinement   'olex2.refine 1.5 (Bourhis et al., 2015)'
_shelx_refln_list_code            4
loop_
  _space_group_symop_id
  _space_group_symop_operation_xyz
  1  x,y,z
  2  -x+1/2,y+1/2,-z+1/2
  3  -x,-y,-z
  4  x-1/2,-y-1/2,z-1/2

_space_group_crystal_system       monoclinic
_space_group_IT_number            14
_space_group_name_H-M_alt         'P 1 21/n 1'
_space_group_name_Hall            '-P 2ybc (x-z,y,z)'
_symmetry_space_group_name_H-M    'P 1 21/n 1'
_symmetry_space_group_name_Hall   '-P 2ybc (x-z,y,z)'
_symmetry_Int_Tables_number       14
_cell_length_a                    4.633(5)
_cell_length_b                    8.400(1)
_cell_length_c                    6.577(3)
_cell_angle_alpha                 90
_cell_angle_beta                  100.37(6)
_cell_angle_gamma                 90
_cell_volume                      251.8(3)
loop_
  _refln_index_h
  _refln_index_k
  _refln_index_l
  _refln_F_squared_calc
  _refln_F_squared_meas
  _refln_F_squared_sigma
  _refln_F_squared_weight
  _refln_observed_status
-9 0 1 0.111 0.150 0.230 57.298 o
-9 0 3 0.040 0.030 0.170 105.533 o
-9 0 5 0.180 0.250 0.200 74.585 o
-9 1 0 0.006 0.080 0.190 84.672 o
-9 1 1 0.092 0.070 0.210 68.905 o
-9 1 2 0.015 0.030 0.140 155.824 o
-9 1 3 0.001 0.190 0.160 118.352 o
-9 1 4 0.079 0.200 0.190 83.527 o
-9 2 0 0.003 0.090 0.230 57.856 o
-9 2 1 0.007 0.040 0.150 135.888 o
-9 2 2 0.051 0.130 0.200 75.967 o
-9 2 3 0.018 0.170 0.200 76.058 o
-9 2 4 0.058 0.090 0.200 76.052 o
-9 3 1 0.001 0.070 0.220 63.273 o
-9 3 2 0.012 0.010 0.070 619.082 o
-9 3 3 0.089 0.060 0.200 75.945 o
-8 0 -4 0.231 0.120 0.250 48.271 o
-8 0 -2 0.000 0.070 0.260 45.337 o
-8 0 0 2.475 1.968 0.180 53.184 o
-8 0 2 3.249 3.407 0.200 36.346 o
-8 0 4 0.537 0.430 0.170 95.511 o
-8 0 6 0.713 0.639 0.180 82.581 o
-8 0 8 1.210 1.299 0.200 61.020 o
-8 1 -4 0.000 0.170 0.200 76.180 o
-8 1 -3 0.003 0.130 0.200 76.300 o
-8 1 -2 0.268 0.160 0.180 90.980 o
-8 1 -1 0.000 0.130 0.190 84.511 o
-8 1 0 0.070 0.020 0.110 247.905 o
-8 1 1 0.236 0.200 0.140 146.943 o
-8 1 2 0.645 0.569 0.180 83.889 o
-8 1 3 0.434 0.470 0.350 24.499 o
-8 1 4 0.311 0.440 0.210 66.368 o
-8 1 5 0.001 0.140 0.200 76.276 o
-8 1 6 0.112 0.140 0.170 103.834 o
-8 1 7 0.063 0.130 0.200 75.881 o
-8 1 8 0.011 0.050 0.190 84.752 o
-8 2 -4 0.001 0.200 0.200 76.066 o
-8 2 -3 0.083 0.180 0.160 117.038 o
-8 2 -2 0.000 0.060 0.200 76.557 o
-8 2 -1 0.513 0.440 0.130 153.143 o
-8 2 0 0.069 0.020 0.100 298.583 o
-8 2 1 2.784 2.528 0.689 6.039 o
-8 2 2 0.005 0.110 0.200 76.350 o
-8 2 3 1.047 1.049 0.340 24.797 o
-8 2 4 0.593 0.629 0.120 166.176 o
-8 2 5 0.276 0.350 0.210 66.894 o
-8 2 6 0.235 0.220 0.140 146.663 o
-8 2 7 0.915 0.969 0.130 128.184 o
-8 2 8 0.032 0.010 0.050 1166.670 o
-8 3 -3 0.305 0.370 0.240 51.539 o
-8 3 -2 0.052 0.150 0.210 68.901 o
-8 3 -1 1.056 0.909 0.140 112.082 o
-8 3 0 0.110 0.330 0.130 171.120 o
-8 3 1 0.002 0.060 0.200 76.546 o
-8 3 2 0.045 0.160 0.190 83.999 o
-8 3 3 0.649 0.839 0.330 26.959 o
-8 3 4 0.000 0.240 0.180 93.511 o
-8 3 5 0.009 0.040 0.170 105.867 o
-8 3 6 0.000 0.140 0.170 105.333 o
-8 3 7 0.000 0.050 0.180 94.504 o
-8 3 8 0.004 0.120 0.220 63.142 o
-8 4 -3 0.007 0.090 0.230 57.841 o
-8 4 -2 0.042 0.070 0.210 69.192 o
-8 4 -1 0.062 0.100 0.210 68.990 o
-8 4 0 0.670 0.649 0.200 68.899 o
-8 4 1 0.166 0.090 0.190 83.243 o
-8 4 2 0.627 0.649 0.120 164.008 o
-8 4 3 0.382 0.280 0.130 161.417 o
-8 4 4 0.131 0.100 0.200 75.498 o
-8 4 5 1.086 1.129 0.230 49.780 o
-8 4 6 0.252 0.250 0.140 145.720 o
-8 4 7 0.001 0.040 0.160 119.594 o
-8 5 -3 0.001 0.110 0.190 84.583 o
-8 5 -2 0.927 0.739 0.190 72.267 o
-8 5 -1 0.077 0.100 0.160 117.818 o
-8 5 0 0.619 0.639 0.320 28.789 o
-8 5 1 0.010 0.160 0.200 76.148 o
-8 5 2 0.071 0.100 0.240 52.903 o
-8 5 3 0.183 0.070 0.210 68.365 o
-8 5 4 0.155 0.360 0.130 168.793 o
-8 5 5 0.006 0.060 0.200 76.515 o
-8 5 6 0.008 0.160 0.200 76.157 o
-8 5 7 0.173 0.220 0.190 82.591 o
-8 6 -2 0.000 0.180 0.160 118.442 o
-8 6 -1 0.085 0.020 0.120 208.267 o
-8 6 0 0.319 0.240 0.180 89.931 o
-8 6 1 0.037 0.160 0.210 68.965 o
-8 6 2 0.031 0.220 0.190 83.859 o
-8 6 3 0.024 0.240 0.190 83.835 o
-8 6 4 0.575 0.589 0.140 130.808 o
-8 6 5 0.095 0.230 0.150 131.884 o
-8 6 6 0.102 0.100 0.210 68.756 o
-8 7 -1 0.458 0.470 0.130 154.692 o
-8 7 0 0.009 0.060 0.200 76.499 o
-8 7 1 0.055 0.220 0.190 83.650 o
-8 7 2 0.494 0.609 0.130 150.577 o
-8 7 3 0.028 0.200 0.150 133.695 o
-8 7 4 0.103 0.100 0.180 93.161 o
-8 7 5 0.030 0.070 0.220 63.134 o
-8 8 1 0.295 0.280 0.140 143.962 o
-8 8 2 0.020 0.130 0.200 76.182 o
-8 8 3 0.000 0.130 0.200 76.318 o
-7 0 -5 0.597 0.569 0.180 84.502 o
-7 0 -3 0.725 0.599 0.160 101.209 o
-7 0 -1 0.130 0.120 0.210 68.530 o
-7 0 1 0.060 0.090 0.260 45.168 o
-7 0 3 4.415 4.356 0.190 28.608 o
-7 0 5 0.854 0.909 0.170 86.835 o
-7 0 7 0.586 0.629 0.190 76.495 o
-7 0 9 0.002 0.120 0.240 53.103 o
-7 1 -6 0.021 0.050 0.180 94.291 o
-7 1 -5 0.151 0.230 0.250 48.349 o
-7 1 -4 0.089 0.170 0.180 92.928 o
-7 1 -3 0.000 0.100 0.160 119.113 o
-7 1 -2 0.565 0.549 0.120 169.543 o
-7 1 -1 0.606 0.510 0.120 168.520 o
-7 1 0 4.289 3.916 0.889 3.582 o
-7 1 1 5.867 5.585 1.099 2.320 o
-7 1 2 5.684 5.804 0.919 3.204 o
-7 1 3 1.955 2.098 0.220 44.572 o
-7 1 4 0.482 0.549 0.160 106.343 o
-7 1 5 0.756 0.679 0.120 157.061 o
-7 1 6 0.210 0.220 0.120 196.441 o
-7 1 7 0.382 0.520 0.120 179.615 o
-7 1 8 0.074 0.090 0.200 75.940 o
-7 1 9 0.039 0.010 0.070 607.262 o
-7 1 10 0.138 0.200 0.170 103.066 o
-7 2 -6 0.033 0.160 0.160 118.055 o
-7 2 -5 0.025 0.310 0.240 52.698 o
-7 2 -4 0.500 0.430 0.180 86.591 o
-7 2 -3 0.117 0.080 0.180 93.111 o
-7 2 -2 0.007 0.050 0.170 105.830 o
-7 2 -1 0.713 0.470 0.180 83.666 o
-7 2 0 0.140 0.030 0.110 242.401 o
-7 2 1 0.018 0.130 0.190 84.362 o
-7 2 2 1.668 1.638 0.230 44.867 o
-7 2 3 1.831 1.858 0.370 19.812 o
-7 2 4 3.340 3.357 0.220 32.718 o
-7 2 5 1.389 1.429 0.120 115.267 o
-7 2 6 0.007 0.070 0.200 76.473 o
-7 2 7 0.023 0.060 0.190 84.614 o
-7 2 8 0.057 0.100 0.170 104.837 o
-7 2 9 0.025 0.060 0.200 76.389 o
-7 2 10 0.387 0.270 0.160 110.761 o
-7 3 -6 0.292 0.210 0.150 127.612 o
-7 3 -5 0.008 0.030 0.130 180.800 o
-7 3 -4 0.010 0.110 0.210 69.259 o
-7 3 -3 0.448 0.420 0.140 137.243 o
-7 3 -2 0.139 0.170 0.130 173.116 o
-7 3 -1 1.918 1.788 0.120 93.089 o
-7 3 0 0.911 0.889 0.210 60.361 o
-7 3 1 2.536 2.598 0.470 12.253 o
-7 3 2 2.426 2.328 0.420 15.109 o
-7 3 3 1.343 1.199 0.120 121.067 o
-7 3 4 0.272 0.370 0.210 66.860 o
-7 3 5 0.278 0.410 0.190 80.713 o
-7 3 6 1.484 1.549 0.130 100.886 o
-7 3 7 0.008 0.100 0.170 105.491 o
-7 3 8 0.044 0.150 0.200 75.943 o
-7 3 9 0.310 0.280 0.190 81.030 o
-7 4 -6 0.066 0.110 0.300 33.950 o
-7 4 -5 0.001 0.130 0.200 76.311 o
-7 4 -4 0.014 0.060 0.190 84.684 o
-7 4 -3 0.003 0.040 0.160 119.564 o
-7 4 -2 0.663 0.569 0.190 75.995 o
-7 4 -1 0.098 0.200 0.150 132.156 o
-7 4 0 0.901 0.689 0.120 150.050 o
-7 4 1 0.220 0.420 0.120 190.676 o
-7 4 2 1.215 1.189 0.120 126.148 o
-7 4 3 2.612 2.727 0.200 43.003 o
-7 4 4 4.940 5.255 0.789 4.300 o
-7 4 5 1.387 1.469 0.190 63.318 o
-7 4 6 0.528 0.599 0.120 170.141 o
-7 4 7 0.232 0.100 0.200 74.759 o
-7 4 8 0.003 0.070 0.210 69.414 o
-7 4 9 0.406 0.380 0.130 158.504 o
-7 5 -5 0.163 0.050 0.180 92.781 o
-7 5 -4 0.082 0.100 0.180 93.378 o
-7 5 -3 0.083 0.040 0.150 134.257 o
-7 5 -2 0.822 0.769 0.250 44.942 o
-7 5 -1 0.032 0.130 0.180 93.762 o
-7 5 0 0.327 0.370 0.120 186.354 o
-7 5 1 0.623 0.390 0.130 149.830 o
-7 5 2 0.006 0.130 0.190 84.464 o
-7 5 3 0.004 0.060 0.180 94.419 o
-7 5 4 0.400 0.370 0.120 182.585 o
-7 5 5 1.213 1.489 0.130 109.774 o
-7 5 6 0.474 0.510 0.140 135.093 o
-7 5 7 0.052 0.250 0.140 151.610 o
-7 5 8 0.083 0.400 0.280 38.633 o
-7 5 9 0.297 0.340 0.130 163.589 o
-7 6 -5 0.002 0.100 0.250 48.982 o
-7 6 -4 0.299 0.200 0.160 113.019 o
-7 6 -3 0.017 0.010 0.090 375.473 o
-7 6 -2 0.158 0.110 0.180 92.502 o
-7 6 -1 0.781 0.589 0.160 100.226 o
-7 6 0 0.050 0.170 0.180 93.352 o
-7 6 1 0.000 0.130 0.180 94.091 o
-7 6 2 0.829 0.889 0.330 26.667 o
-7 6 3 3.299 3.367 0.140 47.591 o
-7 6 4 1.288 1.469 0.130 107.786 o
-7 6 5 1.467 1.618 0.130 100.384 o
-7 6 6 1.387 1.499 0.220 50.405 o
-7 6 7 0.035 0.170 0.160 117.940 o
-7 6 8 1.231 1.069 0.130 115.795 o
-7 7 -4 0.021 0.370 0.280 38.785 o
-7 7 -3 0.215 0.150 0.210 67.922 o
-7 7 -2 0.009 0.100 0.180 94.158 o
-7 7 -1 0.059 0.150 0.160 117.692 o
-7 7 0 0.044 0.110 0.210 69.066 o
-7 7 1 0.682 0.629 0.120 161.809 o
-7 7 2 0.035 0.130 0.180 93.721 o
-7 7 3 0.158 0.120 0.180 92.447 o
-7 7 4 0.212 0.240 0.180 91.166 o
-7 7 5 0.688 0.589 0.120 162.466 o
-7 7 6 0.079 0.210 0.180 92.818 o
-7 7 7 0.130 0.040 0.160 117.431 o
-7 7 8 0.080 0.200 0.190 83.514 o
-7 8 -3 0.387 0.529 0.130 156.298 o
-7 8 -2 0.015 0.180 0.160 118.185 o
-7 8 -1 0.008 0.040 0.130 180.611 o
-7 8 0 0.071 0.020 0.110 247.787 o
-7 8 1 0.327 0.350 0.130 162.197 o
-7 8 2 0.568 0.659 0.170 93.254 o
-7 8 3 0.202 0.230 0.210 67.758 o
-7 8 4 0.937 0.849 0.120 144.815 o
-7 8 5 0.679 0.809 0.120 157.614 o
-7 8 6 0.012 0.180 0.150 134.268 o
-7 8 7 1.785 1.858 0.130 88.898 o
-7 9 -2 0.045 0.140 0.210 68.976 o
-7 9 -1 0.133 0.150 0.210 68.424 o
-7 9 0 0.441 0.569 0.300 32.975 o
-7 9 1 0.049 0.140 0.170 104.682 o
-7 9 2 1.068 0.839 0.120 139.303 o
-7 9 3 0.000 0.060 0.200 76.556 o
-7 9 4 0.034 0.100 0.240 53.028 o
-7 9 5 0.013 0.030 0.110 251.722 o
-7 9 6 0.425 0.470 0.130 156.013 o
-7 10 -1 0.008 0.130 0.200 76.262 o
-7 10 0 0.243 0.160 0.200 74.446 o
-7 10 1 0.072 0.140 0.200 75.776 o
-7 10 2 0.026 0.190 0.200 75.931 o
-7 10 3 0.157 0.290 0.190 82.417 o
-7 10 4 0.001 0.020 0.120 212.636 o
-7 10 5 0.012 0.060 0.180 94.335 o
-6 0 -4 5.184 4.006 0.190 25.915 o
-6 0 -2 1.103 0.819 0.190 69.922 o
-6 0 0 2.123 2.298 0.210 45.567 o
-6 0 2 8.210 8.722 0.240 11.092 o
-6 0 4 0.651 0.569 0.180 83.819 o
-6 0 6 20.288 19.411 0.529 2.219 o
-6 0 8 7.442 7.633 0.210 13.705 o
-6 0 10 0.274 0.220 0.200 73.981 o
-6 1 -5 0.762 0.549 0.130 141.458 o
-6 1 -4 2.031 1.648 0.110 98.731 o
-6 1 -3 1.623 1.109 0.110 123.038 o
-6 1 -2 1.389 0.989 0.100 149.772 o
-6 1 -1 0.012 0.010 0.090 376.301 o
-6 1 0 0.800 0.679 0.180 81.199 o
-6 1 1 0.995 1.229 0.210 58.393 o
-6 1 2 0.139 0.240 0.220 62.183 o
-6 1 3 0.114 0.110 0.210 68.658 o
-6 1 4 7.958 9.221 0.490 6.686 o
-6 1 5 0.475 0.689 0.190 77.339 o
-6 1 6 1.172 1.199 0.140 104.953 o
-6 1 7 0.156 0.280 0.120 197.711 o
-6 1 8 0.901 0.819 0.120 147.091 o
-6 1 9 0.073 0.220 0.130 174.691 o
-6 1 10 0.028 0.040 0.150 135.441 o
-6 1 11 0.179 0.250 0.120 197.305 o
-6 2 -5 3.077 2.607 0.430 13.864 o
-6 2 -4 0.192 0.100 0.200 75.054 o
-6 2 -3 1.765 1.479 0.210 51.351 o
-6 2 -2 3.286 2.767 0.120 55.953 o
-6 2 -1 0.256 0.410 0.270 41.079 o
-6 2 0 1.853 2.068 0.260 35.328 o
-6 2 1 3.590 4.216 0.210 30.707 o
-6 2 2 0.404 0.390 0.130 158.392 o
-6 2 3 1.405 1.778 0.130 99.881 o
-6 2 4 0.248 0.280 0.140 145.397 o
-6 2 5 8.103 7.713 0.609 5.363 o
-6 2 6 0.233 0.190 0.120 196.059 o
-6 2 7 11.424 11.449 0.400 5.622 o
-6 2 8 0.049 0.200 0.150 133.249 o
-6 2 9 1.112 0.939 0.120 135.341 o
-6 2 10 0.627 0.659 0.150 114.353 o
-6 2 11 0.109 0.220 0.170 103.320 o
-6 3 -5 0.077 0.070 0.140 153.483 o
-6 3 -4 0.300 0.250 0.130 165.238 o
-6 3 -3 2.625 2.498 0.120 68.915 o
-6 3 -2 0.086 0.030 0.140 153.813 o
-6 3 -1 0.276 0.140 0.210 67.570 o
-6 3 0 0.001 0.110 0.180 94.189 o
-6 3 1 0.076 0.230 0.130 174.392 o
-6 3 2 0.023 0.090 0.190 84.488 o
-6 3 3 12.220 14.916 0.270 5.375 o
-6 3 4 0.216 0.460 0.190 81.064 o
-6 3 5 12.815 13.197 0.689 3.191 o
-6 3 6 0.096 0.160 0.170 103.916 o
-6 3 7 0.000 0.050 0.170 105.916 o
-6 3 8 0.044 0.090 0.170 105.083 o
-6 3 9 0.826 0.829 0.120 150.288 o
-6 3 10 0.163 0.140 0.210 68.271 o
-6 3 11 0.017 0.160 0.180 93.760 o
-6 4 -5 0.031 0.090 0.150 134.845 o
-6 4 -4 0.634 0.539 0.120 166.350 o
-6 4 -3 2.142 2.128 0.120 83.017 o
-6 4 -2 0.028 0.020 0.110 250.946 o
-6 4 -1 6.632 6.284 0.170 18.168 o
-6 4 0 0.110 0.250 0.180 92.256 o
-6 4 1 0.011 0.160 0.190 84.292 o
-6 4 2 0.696 1.009 0.130 135.364 o
-6 4 3 2.135 2.208 0.270 32.040 o
-6 4 4 0.584 0.679 0.110 188.734 o
-6 4 5 0.132 0.170 0.160 116.265 o
-6 4 6 3.970 3.796 0.480 10.622 o
-6 4 7 0.386 0.300 0.120 185.121 o
-6 4 8 0.990 1.059 0.110 153.858 o
-6 4 9 0.817 0.799 0.320 28.354 o
-6 4 10 0.065 0.130 0.190 83.952 o
-6 5 -5 0.000 0.070 0.210 69.427 o
-6 5 -4 0.404 0.470 0.110 207.752 o
-6 5 -3 0.097 0.100 0.180 93.218 o
-6 5 -2 1.488 1.169 0.120 116.339 o
-6 5 -1 0.336 0.230 0.120 189.555 o
-6 5 0 0.622 0.679 0.120 163.493 o
-6 5 1 1.659 1.568 0.120 103.921 o
-6 5 2 6.815 7.113 0.140 17.531 o
-6 5 3 0.007 0.160 0.160 118.494 o
-6 5 4 17.902 18.472 0.370 2.927 o
-6 5 5 0.517 0.529 0.110 198.033 o
-6 5 6 3.072 3.367 0.130 52.419 o
-6 5 7 0.261 0.180 0.140 146.504 o
-6 5 8 0.394 0.539 0.120 178.477 o
-6 5 9 0.658 0.629 0.180 83.339 o
-6 5 10 0.105 0.220 0.150 131.782 o
-6 6 -5 0.000 0.160 0.190 84.384 o
-6 6 -4 0.004 0.030 0.110 252.374 o
-6 6 -3 0.004 0.030 0.120 212.228 o
-6 6 -2 3.049 2.667 0.130 57.402 o
-6 6 -1 0.006 0.150 0.150 134.720 o
-6 6 0 1.141 1.219 0.120 128.457 o
-6 6 1 0.050 0.020 0.090 369.278 o
-6 6 2 1.579 1.369 0.120 109.770 o
-6 6 3 0.335 0.240 0.120 189.339 o
-6 6 4 0.116 0.190 0.170 103.430 o
-6 6 5 0.262 0.350 0.120 190.304 o
-6 6 6 1.677 1.758 0.120 100.458 o
-6 6 7 0.000 0.110 0.180 94.195 o
-6 6 8 0.012 0.190 0.180 93.654 o
-6 6 9 0.002 0.110 0.160 118.996 o
-6 6 10 0.647 0.629 0.130 144.297 o
-6 7 -5 0.032 0.070 0.220 63.124 o
-6 7 -4 0.544 0.420 0.190 78.013 o
-6 7 -3 0.344 0.190 0.140 143.860 o
-6 7 -2 0.022 0.769 0.510 11.732 o
-6 7 -1 0.888 0.679 0.120 150.886 o
-6 7 0 3.181 3.107 0.250 29.557 o
-6 7 1 2.878 2.817 0.300 24.497 o
-6 7 2 2.069 2.298 0.120 82.750 o
-6 7 3 8.360 8.132 0.510 6.467 o
-6 7 4 0.146 0.140 0.140 150.473 o
-6 7 5 4.324 4.116 0.130 36.401 o
-6 7 6 0.052 0.220 0.170 104.110 o
-6 7 7 0.040 0.040 0.170 105.459 o
-6 7 8 1.376 1.239 0.120 119.144 o
-6 7 9 0.052 0.050 0.160 118.661 o
-6 8 -5 0.312 0.430 0.130 161.209 o
-6 8 -4 0.110 0.190 0.150 131.996 o
-6 8 -3 0.006 0.010 0.050 1208.820 o
-6 8 -2 0.011 0.120 0.180 94.033 o
-6 8 -1 0.314 0.300 0.140 143.118 o
-6 8 0 0.019 0.030 0.140 155.698 o
-6 8 1 0.380 0.370 0.130 159.735 o
-6 8 2 1.049 0.859 0.170 84.163 o
-6 8 3 0.443 0.470 0.120 177.752 o
-6 8 4 0.280 0.320 0.120 190.161 o
-6 8 5 1.078 1.139 0.130 119.686 o
-6 8 6 0.449 0.520 0.120 176.161 o
-6 8 7 1.061 1.319 0.130 117.276 o
-6 8 8 0.177 0.300 0.140 147.196 o
-6 8 9 0.016 0.160 0.180 93.764 o
-6 9 -5 0.268 0.290 0.140 144.652 o
-6 9 -4 0.000 0.040 0.170 105.984 o
-6 9 -3 0.504 0.470 0.190 78.162 o
-6 9 -2 0.157 0.170 0.150 131.178 o
-6 9 -1 0.618 0.689 0.270 39.728 o
-6 9 0 1.134 0.889 0.270 37.828 o
-6 9 1 3.384 3.297 0.440 12.834 o
-6 9 2 2.216 2.098 0.280 30.216 o
-6 9 3 0.244 0.300 0.120 192.561 o
-6 9 4 0.983 1.139 0.120 136.542 o
-6 9 5 0.002 0.080 0.170 105.694 o
-6 9 6 0.052 0.140 0.180 93.488 o
-6 9 7 0.885 0.899 0.180 78.669 o
-6 9 8 0.018 0.150 0.150 134.460 o
-6 10 -4 0.282 0.320 0.140 143.773 o
-6 10 -3 0.024 0.080 0.230 57.792 o
-6 10 -2 0.144 0.170 0.160 116.051 o
-6 10 -1 0.286 0.200 0.190 81.638 o
-6 10 0 0.291 0.300 0.130 164.624 o
-6 10 1 0.210 0.160 0.150 130.076 o
-6 10 2 0.239 0.200 0.140 146.845 o
-6 10 3 0.793 0.859 0.120 151.090 o
-6 10 4 0.306 0.310 0.130 163.833 o
-6 10 5 0.133 0.190 0.190 83.087 o
-6 10 6 1.073 1.229 0.180 74.085 o
-6 10 7 0.474 0.520 0.130 153.080 o
-6 11 -3 0.004 0.130 0.210 69.238 o
-6 11 -2 0.007 0.190 0.200 76.064 o
-6 11 -1 0.197 0.170 0.200 74.762 o
-6 11 0 0.861 0.899 0.120 147.104 o
-6 11 1 0.702 0.739 0.360 22.809 o
-6 11 2 0.467 0.230 0.150 123.289 o
-6 11 3 0.033 0.070 0.200 76.298 o
-6 11 4 0.003 0.140 0.210 69.215 o
-6 11 5 0.140 0.210 0.170 102.958 o
-6 11 6 0.159 0.510 0.350 24.735 o
-6 12 -1 0.423 0.470 0.150 121.495 o
-6 12 0 0.133 0.100 0.250 48.600 o
-6 12 1 0.117 0.210 0.150 131.624 o
-6 12 2 0.294 0.420 0.130 162.130 o
-6 12 3 0.142 0.090 0.200 75.460 o
-6 12 4 0.028 0.130 0.190 84.276 o
-5 0 -3 7.354 6.704 0.220 14.420 o
-5 0 -1 0.666 0.310 0.160 105.111 o
-5 0 1 19.324 20.201 0.500 2.338 o
-5 0 3 2.403 2.218 0.150 63.395 o
-5 0 5 10.628 11.389 0.280 7.124 o
-5 0 7 0.444 0.759 0.190 77.294 o
-5 0 9 2.302 2.278 0.170 56.823 o
-5 0 11 0.041 0.070 0.240 53.056 o
-5 1 -4 7.153 6.953 0.160 16.328 o
-5 1 -3 1.591 1.319 0.190 61.944 o
-5 1 -2 0.076 0.200 0.170 103.915 o
-5 1 -1 10.298 8.732 0.160 9.736 o
-5 1 0 6.802 6.364 0.909 3.154 o
-5 1 1 7.314 7.763 0.340 10.453 o
-5 1 2 4.080 4.086 0.120 39.693 o
-5 1 3 0.118 0.300 0.190 82.734 o
-5 1 4 7.703 7.852 0.150 14.406 o
-5 1 5 5.782 6.084 0.170 21.017 o
-5 1 6 19.241 20.980 0.410 2.451 o
-5 1 7 17.588 19.212 0.340 2.978 o
-5 1 8 7.767 7.653 0.380 9.194 o
-5 1 9 1.714 1.788 0.130 91.532 o
-5 1 10 0.060 0.100 0.180 93.613 o
-5 1 11 0.373 0.340 0.130 160.601 o
-5 1 12 0.114 0.220 0.130 173.102 o
-5 2 -4 2.652 3.107 0.310 23.549 o
-5 2 -3 6.003 6.104 0.430 9.986 o
-5 2 -2 7.818 7.193 0.639 5.169 o
-5 2 -1 6.886 6.294 0.200 16.445 o
-5 2 0 0.709 0.969 0.100 195.083 o
-5 2 1 0.126 0.190 0.120 201.652 o
-5 2 2 6.102 6.364 0.140 20.798 o
-5 2 3 0.662 0.819 0.110 179.440 o
-5 2 4 3.654 4.236 0.130 41.491 o
-5 2 5 2.827 3.337 0.130 55.827 o
-5 2 6 4.424 4.705 0.150 31.626 o
-5 2 7 0.101 0.110 0.170 104.186 o
-5 2 8 1.184 0.969 0.140 107.721 o
-5 2 9 2.687 2.408 0.120 68.599 o
-5 2 10 1.074 1.059 0.120 134.424 o
-5 2 11 0.569 0.609 0.130 147.668 o
-5 3 -4 1.420 1.509 0.140 94.682 o
-5 3 -3 1.935 2.388 0.360 20.284 o
-5 3 -2 3.889 4.166 0.310 19.619 o
-5 3 -1 0.002 0.050 0.180 94.487 o
-5 3 0 15.562 14.206 0.350 3.979 o
-5 3 1 2.868 2.558 0.210 39.544 o
-5 3 2 0.294 0.280 0.110 222.174 o
-5 3 3 12.017 12.748 0.240 6.176 o
-5 3 4 1.913 2.298 0.120 86.537 o
-5 3 5 14.329 15.465 0.300 4.342 o
-5 3 6 6.687 6.913 0.579 6.318 o
-5 3 7 5.279 5.435 0.180 23.395 o
-5 3 8 5.188 5.295 0.200 22.668 o
-5 3 9 0.665 0.669 0.220 57.939 o
-5 3 10 0.099 0.120 0.190 83.703 o
-5 3 11 0.021 0.060 0.190 84.626 o
-5 4 -4 3.037 3.027 0.210 37.016 o
-5 4 -3 5.684 6.594 0.909 3.236 o
-5 4 -2 16.907 17.383 1.399 1.106 o
-5 4 -1 5.653 5.555 0.140 24.013 o
-5 4 0 2.273 2.558 0.120 75.297 o
-5 4 1 0.526 0.559 0.110 196.432 o
-5 4 2 0.077 0.040 0.150 134.384 o
-5 4 3 1.688 1.908 0.120 97.907 o
-5 4 4 4.470 5.265 0.140 30.601 o
-5 4 5 2.907 3.057 0.140 53.962 o
-5 4 6 1.570 1.958 0.140 86.024 o
-5 4 7 0.263 0.300 0.110 223.649 o
-5 4 8 3.901 3.557 0.130 42.352 o
-5 4 9 1.971 1.948 0.280 31.238 o
-5 4 10 3.647 3.487 0.130 45.199 o
-5 4 11 0.258 0.290 0.180 90.346 o
-5 5 -4 0.000 0.010 0.060 848.763 o
-5 5 -3 0.455 0.639 0.130 151.507 o
-5 5 -2 0.771 1.159 0.140 116.614 o
-5 5 -1 9.070 8.901 0.629 4.746 o
-5 5 0 0.811 0.929 0.140 118.764 o
-5 5 1 1.382 1.369 0.170 75.174 o
-5 5 2 3.833 3.866 0.130 41.545 o
-5 5 3 4.173 4.705 0.480 10.220 o
-5 5 4 10.600 11.039 0.260 7.449 o
-5 5 5 0.003 0.050 0.180 94.473 o
-5 5 6 0.948 0.969 0.110 158.533 o
-5 5 7 3.267 3.257 0.120 52.887 o
-5 5 8 0.021 0.310 0.260 44.988 o
-5 5 9 0.089 0.150 0.180 93.040 o
-5 5 10 0.171 0.180 0.150 130.730 o
-5 5 11 0.196 0.150 0.150 130.509 o
-5 6 -4 1.527 1.638 0.120 107.018 o
-5 6 -3 7.618 6.664 0.240 13.418 o
-5 6 -2 5.135 5.934 0.160 24.235 o
-5 6 -1 5.772 6.094 0.160 21.522 o
-5 6 0 9.666 10.150 0.669 4.141 o
-5 6 1 0.446 0.589 0.120 174.532 o
-5 6 2 8.999 10.040 0.480 6.173 o
-5 6 3 0.274 0.220 0.180 90.569 o
-5 6 4 1.910 2.278 0.130 81.134 o
-5 6 5 4.583 4.226 1.399 1.510 o
-5 6 6 0.451 0.460 0.110 204.835 o
-5 6 7 0.226 0.200 0.120 196.128 o
-5 6 8 1.603 1.598 0.120 105.240 o
-5 6 9 4.228 4.056 0.140 36.192 o
-5 6 10 0.594 0.629 0.130 146.331 o
-5 6 11 0.446 0.440 0.130 155.777 o
-5 7 -4 0.121 0.180 0.150 131.857 o
-5 7 -3 0.347 0.280 0.120 187.664 o
-5 7 -2 1.645 1.648 0.220 48.146 o
-5 7 -1 2.309 2.068 0.310 25.554 o
-5 7 0 1.931 2.028 0.140 77.750 o
-5 7 1 0.405 0.579 0.220 59.785 o
-5 7 2 0.074 0.470 0.300 33.672 o
-5 7 3 3.724 3.527 0.170 37.699 o
-5 7 4 0.109 0.300 0.160 115.528 o
-5 7 5 0.223 0.220 0.130 168.845 o
-5 7 6 0.842 0.709 0.120 152.313 o
-5 7 7 2.187 2.168 0.120 81.508 o
-5 7 8 0.259 0.250 0.130 166.854 o
-5 7 9 0.100 0.010 0.080 452.910 o
-5 7 10 0.024 0.100 0.170 105.281 o
-5 8 -4 0.510 0.539 0.110 198.171 o
-5 8 -3 0.790 0.959 0.240 48.115 o
-5 8 -2 2.190 1.818 0.120 85.607 o
-5 8 -1 4.903 4.486 0.470 10.150 o
-5 8 0 0.155 0.220 0.120 199.372 o
-5 8 1 14.440 13.607 1.598 0.979 o
-5 8 2 0.980 1.049 0.110 154.644 o
-5 8 3 5.226 5.335 0.350 14.009 o
-5 8 4 0.954 0.989 0.110 157.628 o
-5 8 5 0.486 0.430 0.120 176.577 o
-5 8 6 0.386 0.410 0.130 158.717 o
-5 8 7 1.507 1.578 0.120 108.675 o
-5 8 8 1.125 1.049 0.120 132.526 o
-5 8 9 0.191 0.270 0.120 196.144 o
-5 8 10 0.438 0.589 0.130 153.122 o
-5 9 -4 1.927 1.848 0.130 85.618 o
-5 9 -3 0.071 0.110 0.170 104.583 o
-5 9 -2 0.034 0.080 0.150 134.883 o
-5 9 -1 0.056 0.070 0.180 93.816 o
-5 9 0 2.047 1.978 0.120 87.192 o
-5 9 1 0.118 0.160 0.160 116.596 o
-5 9 2 0.055 0.220 0.170 104.058 o
-5 9 3 0.840 0.699 0.110 172.328 o
-5 9 4 0.204 0.350 0.110 226.090 o
-5 9 5 1.441 1.369 0.120 114.481 o
-5 9 6 2.404 2.248 0.260 32.765 o
-5 9 7 0.289 0.140 0.160 113.740 o
-5 9 8 1.424 1.638 0.180 67.040 o
-5 9 9 0.004 0.070 0.200 76.498 o
-5 10 -4 0.049 0.150 0.190 84.008 o
-5 10 -3 0.059 0.160 0.190 83.880 o
-5 10 -2 0.087 0.140 0.190 83.716 o
-5 10 -1 0.107 0.170 0.130 174.355 o
-5 10 0 4.252 4.406 0.440 11.704 o
-5 10 1 1.067 1.109 0.120 133.662 o
-5 10 2 5.914 6.114 0.809 3.953 o
-5 10 3 0.048 0.190 0.130 176.230 o
-5 10 4 0.011 0.170 0.140 153.948 o
-5 10 5 0.106 0.270 0.150 131.184 o
-5 10 6 1.559 1.529 0.120 107.781 o
-5 10 7 0.082 0.120 0.180 93.272 o
-5 10 8 0.032 0.050 0.130 179.532 o
-5 11 -4 0.000 0.030 0.140 156.231 o
-5 11 -3 0.278 0.430 0.180 89.294 o
-5 11 -2 0.145 0.120 0.190 83.298 o
-5 11 -1 0.473 0.400 0.190 78.839 o
-5 11 0 0.100 0.230 0.130 173.459 o
-5 11 1 0.248 0.220 0.130 167.870 o
-5 11 2 1.240 1.169 0.130 113.927 o
-5 11 3 0.052 0.050 0.170 105.242 o
-5 11 4 3.623 3.866 0.470 11.184 o
-5 11 5 0.542 0.579 0.120 169.944 o
-5 11 6 0.791 0.959 0.300 31.910 o
-5 11 7 1.277 1.529 0.230 47.501 o
-5 11 8 0.007 0.050 0.200 76.543 o
-5 12 -4 0.004 0.020 0.120 212.493 o
-5 12 -3 0.135 0.230 0.160 115.683 o
-5 12 -2 0.159 0.240 0.190 82.631 o
-5 12 -1 0.018 0.080 0.210 69.299 o
-5 12 0 0.239 0.140 0.200 74.552 o
-5 12 1 1.545 1.788 0.160 75.433 o
-5 12 2 0.024 0.170 0.190 84.138 o
-5 12 3 0.127 0.170 0.160 116.347 o
-5 12 4 0.003 0.130 0.160 118.813 o
-5 12 5 0.814 0.819 0.130 134.519 o
-5 12 6 0.079 0.140 0.160 117.448 o
-5 13 -2 0.014 0.110 0.190 84.476 o
-5 13 -1 0.395 0.460 0.130 157.355 o
-5 13 0 0.075 0.160 0.180 93.137 o
-5 13 1 0.077 0.200 0.170 103.898 o
-5 13 2 0.002 0.140 0.210 69.219 o
-5 13 3 2.702 2.737 0.210 40.042 o
-5 13 4 0.029 0.120 0.180 93.838 o
-5 13 5 1.439 1.668 0.130 100.482 o
-5 14 1 0.071 0.060 0.140 153.791 o
-5 14 2 0.038 0.170 0.230 57.555 o
-4 0 -2 13.515 12.848 0.320 5.007 o
-4 0 0 191.960 190.038 1.728 0.032 o
-4 0 2 105.686 111.853 1.299 0.098 o
-4 0 4 1.740 1.908 0.190 57.337 o
-4 0 6 5.663 5.884 0.190 20.706 o
-4 0 8 7.741 7.693 0.240 12.431 o
-4 0 10 0.628 0.559 0.160 103.454 o
-4 0 12 3.254 3.007 0.200 37.578 o
-4 1 -3 0.459 0.440 0.140 136.589 o
-4 1 -2 20.717 17.643 1.808 0.706 o
-4 1 -1 0.101 0.020 0.090 361.172 o
-4 1 0 1.600 1.179 0.100 133.778 o
-4 1 1 12.312 13.147 0.240 5.913 o
-4 1 2 38.573 41.380 0.579 0.691 o
-4 1 3 5.765 6.873 0.130 21.478 o
-4 1 4 2.656 2.827 0.100 72.141 o
-4 1 5 4.591 4.426 0.120 34.305 o
-4 1 6 5.455 6.044 0.140 23.821 o
-4 1 7 2.797 3.137 0.130 57.642 o
-4 1 8 0.271 0.080 0.210 67.795 o
-4 1 9 0.203 0.180 0.120 197.863 o
-4 1 10 3.682 3.207 0.260 26.238 o
-4 1 11 0.274 0.170 0.150 128.509 o
-4 1 12 0.207 0.150 0.150 130.271 o
-4 2 -3 0.100 0.160 0.120 203.825 o
-4 2 -2 1.506 1.219 0.200 58.664 o
-4 2 -1 57.589 53.229 0.679 0.356 o
-4 2 0 1.393 1.748 0.140 92.454 o
-4 2 1 125.252 125.070 1.429 0.073 o
-4 2 2 3.572 3.587 0.100 50.623 o
-4 2 3 13.605 14.396 0.280 4.864 o
-4 2 4 23.865 25.485 0.589 1.564 o
-4 2 5 0.574 1.039 0.110 178.089 o
-4 2 6 1.901 1.778 0.120 93.703 o
-4 2 7 7.854 8.162 0.160 13.627 o
-4 2 8 1.919 1.968 0.140 78.587 o
-4 2 9 0.686 0.719 0.110 181.045 o
-4 2 10 0.479 0.370 0.120 178.470 o
-4 2 11 2.181 1.928 0.150 69.085 o
-4 2 12 0.002 0.030 0.140 156.164 o
-4 3 -3 21.604 22.329 2.727 0.351 o
-4 3 -2 3.456 3.477 0.520 9.642 o
-4 3 -1 45.551 38.933 0.709 0.566 o
-4 3 0 2.882 2.697 0.300 24.640 o
-4 3 1 6.375 6.194 0.190 18.200 o
-4 3 2 0.016 0.140 0.110 247.447 o
-4 3 3 37.030 38.213 0.589 0.760 o
-4 3 4 2.228 1.728 0.110 91.683 o
-4 3 5 0.119 0.140 0.160 116.746 o
-4 3 6 0.764 0.789 0.120 154.068 o
-4 3 7 0.129 0.110 0.190 83.485 o
-4 3 8 0.076 0.110 0.160 117.758 o
-4 3 9 8.547 7.633 0.150 13.051 o
-4 3 10 0.027 0.020 0.100 303.095 o
-4 3 11 2.880 2.837 0.130 58.604 o
-4 3 12 0.000 0.060 0.190 84.802 o
-4 4 -3 5.279 4.905 0.260 19.084 o
-4 4 -2 3.567 3.746 0.270 24.620 o
-4 4 -1 0.764 0.829 0.100 196.186 o
-4 4 0 28.604 26.075 1.359 0.783 o
-4 4 1 2.897 2.498 0.100 70.544 o
-4 4 2 14.608 13.497 0.270 4.698 o
-4 4 3 24.009 26.015 0.839 1.304 o
-4 4 4 0.591 0.539 0.150 116.648 o
-4 4 5 19.174 20.900 0.370 2.529 o
-4 4 6 2.099 2.158 0.120 83.699 o
-4 4 7 1.353 1.369 0.130 107.341 o
-4 4 8 1.742 1.678 0.110 107.757 o
-4 4 9 3.513 3.287 0.130 47.687 o
-4 4 10 0.127 0.070 0.210 68.696 o
-4 4 11 0.007 0.130 0.160 118.752 o
-4 4 12 0.395 0.460 0.120 180.470 o
-4 5 -3 1.118 0.859 0.120 136.745 o
-4 5 -2 39.963 42.190 0.699 0.634 o
-4 5 -1 4.400 4.126 0.130 35.789 o
-4 5 0 7.481 7.373 0.260 12.535 o
-4 5 1 0.859 1.099 0.100 179.458 o
-4 5 2 20.445 20.081 0.350 2.436 o
-4 5 3 5.607 5.375 0.180 22.302 o
-4 5 4 11.959 12.278 0.210 6.523 o
-4 5 5 0.446 0.649 0.120 173.026 o
-4 5 6 1.477 1.479 0.130 102.085 o
-4 5 7 2.214 2.468 0.140 68.516 o
-4 5 8 7.959 7.243 0.230 12.682 o
-4 5 9 0.016 0.140 0.140 154.219 o
-4 5 10 6.633 6.294 0.470 8.502 o
-4 5 11 0.110 0.120 0.180 92.973 o
-4 6 -3 1.153 1.019 0.130 119.186 o
-4 6 -2 0.381 0.220 0.150 125.437 o
-4 6 -1 0.565 0.619 0.110 191.938 o
-4 6 0 10.380 9.601 0.180 9.002 o
-4 6 1 0.079 0.160 0.120 204.965 o
-4 6 2 0.032 0.140 0.150 134.263 o
-4 6 3 0.301 0.050 0.160 114.343 o
-4 6 4 17.403 17.683 0.579 2.575 o
-4 6 5 1.113 0.989 0.120 134.233 o
-4 6 6 0.270 0.380 0.130 163.878 o
-4 6 7 0.491 0.360 0.160 107.971 o
-4 6 8 4.399 4.406 0.130 34.779 o
-4 6 9 0.000 0.060 0.190 84.804 o
-4 6 10 0.226 0.300 0.130 167.156 o
-4 6 11 0.001 0.030 0.110 252.573 o
-4 7 -3 11.243 12.128 0.380 5.716 o
-4 7 -2 0.858 0.569 0.120 154.807 o
-4 7 -1 11.750 12.288 0.230 6.524 o
-4 7 0 0.103 0.120 0.180 93.046 o
-4 7 1 0.089 0.130 0.160 117.360 o
-4 7 2 9.587 9.900 0.250 8.830 o
-4 7 3 6.192 6.404 0.340 12.467 o
-4 7 4 0.004 0.060 0.190 84.773 o
-4 7 5 3.537 3.567 0.360 17.100 o
-4 7 6 10.230 9.970 0.549 5.013 o
-4 7 7 5.304 4.755 0.130 28.123 o
-4 7 8 1.820 1.798 0.130 88.778 o
-4 7 9 5.349 5.005 0.170 24.626 o
-4 7 10 0.153 0.130 0.200 75.231 o
-4 7 11 0.653 0.649 0.130 143.672 o
-4 8 -3 0.524 0.529 0.200 70.677 o
-4 8 -2 0.345 0.420 0.190 80.013 o
-4 8 -1 4.473 4.656 0.150 31.479 o
-4 8 0 3.200 2.897 0.140 51.360 o
-4 8 1 9.032 9.031 0.180 10.837 o
-4 8 2 1.093 1.109 0.130 119.680 o
-4 8 3 0.203 0.220 0.130 169.644 o
-4 8 4 1.531 1.489 0.160 78.166 o
-4 8 5 0.378 0.480 0.100 244.144 o
-4 8 6 0.556 0.669 0.110 190.874 o
-4 8 7 1.956 1.858 0.110 97.808 o
-4 8 8 0.180 0.370 0.120 194.068 o
-4 8 9 0.430 0.510 0.160 107.711 o
-4 8 10 0.002 0.050 0.160 119.487 o
-4 9 -3 0.697 0.699 0.110 181.013 o
-4 9 -2 1.005 1.149 0.140 110.150 o
-4 9 -1 0.000 0.050 0.160 119.526 o
-4 9 0 0.157 0.220 0.180 91.899 o
-4 9 1 4.719 5.105 0.160 28.008 o
-4 9 2 0.022 0.180 0.180 93.597 o
-4 9 3 2.280 2.258 0.250 35.181 o
-4 9 4 0.677 0.579 0.110 185.986 o
-4 9 5 5.689 5.794 0.150 22.870 o
-4 9 6 2.821 2.458 0.160 53.014 o
-4 9 7 6.009 6.504 0.689 5.087 o
-4 9 8 2.448 2.358 0.130 69.554 o
-4 9 9 0.021 0.270 0.130 175.761 o
-4 9 10 0.242 0.180 0.160 114.228 o
-4 10 -3 1.940 2.088 0.120 88.515 o
-4 10 -2 0.881 0.819 0.110 166.427 o
-4 10 -1 0.465 0.470 0.110 203.585 o
-4 10 0 6.589 6.224 0.140 19.450 o
-4 10 1 2.356 2.038 0.160 61.399 o
-4 10 2 3.635 3.527 0.430 13.007 o
-4 10 3 1.004 1.099 0.170 82.997 o
-4 10 4 0.771 0.649 0.350 24.053 o
-4 10 5 2.692 2.578 0.200 42.962 o
-4 10 6 1.210 0.749 0.120 135.215 o
-4 10 7 0.060 0.030 0.130 178.864 o
-4 10 8 0.225 0.160 0.180 91.468 o
-4 10 9 0.201 0.180 0.160 114.969 o
-4 11 -3 0.115 0.030 0.130 176.763 o
-4 11 -2 0.022 0.240 0.170 104.379 o
-4 11 -1 0.789 0.659 0.120 155.973 o
-4 11 0 0.488 0.649 0.120 170.904 o
-4 11 1 0.047 0.060 0.170 105.244 o
-4 11 2 1.905 2.118 0.220 44.838 o
-4 11 3 0.448 0.450 0.110 205.382 o
-4 11 4 0.380 0.240 0.120 187.020 o
-4 11 5 0.400 0.220 0.170 99.156 o
-4 11 6 3.335 3.567 0.130 48.117 o
-4 11 7 1.080 0.869 0.120 138.130 o
-4 11 8 0.239 0.370 0.120 190.978 o
-4 12 -3 0.297 0.310 0.130 164.161 o
-4 12 -2 0.330 0.480 0.120 183.360 o
-4 12 -1 1.304 1.149 0.130 112.208 o
-4 12 0 0.382 0.420 0.140 139.245 o
-4 12 1 1.856 1.728 0.160 70.920 o
-4 12 2 0.268 0.240 0.120 192.879 o
-4 12 3 2.017 1.938 0.170 62.405 o
-4 12 4 3.609 3.736 0.220 30.463 o
-4 12 5 1.692 1.529 0.150 81.313 o
-4 12 6 0.311 0.250 0.140 143.946 o
-4 12 7 0.139 0.180 0.170 103.182 o
-4 12 8 0.319 0.350 0.130 162.530 o
-4 13 -3 0.012 0.050 0.180 94.382 o
-4 13 -2 1.349 1.359 0.150 89.940 o
-4 13 -1 0.002 0.150 0.170 105.237 o
-4 13 0 0.312 0.170 0.190 81.533 o
-4 13 1 0.216 0.220 0.150 129.253 o
-4 13 2 0.779 0.919 0.120 150.371 o
-4 13 3 0.006 0.150 0.200 76.209 o
-4 13 4 0.119 0.220 0.170 103.189 o
-4 13 5 0.341 0.460 0.140 139.865 o
-4 13 6 0.406 0.410 0.150 122.614 o
-4 14 -3 0.268 0.180 0.180 90.869 o
-4 14 -2 0.272 0.410 0.210 66.725 o
-4 14 -1 0.037 0.040 0.170 105.501 o
-4 14 0 0.054 0.240 0.200 75.554 o
-4 14 1 0.126 0.200 0.140 150.178 o
-4 14 2 0.319 0.250 0.140 143.721 o
-4 14 3 1.717 2.088 0.130 87.771 o
-4 14 4 1.199 1.239 0.130 114.118 o
-4 14 5 0.832 0.909 0.130 132.234 o
-4 15 0 0.000 0.150 0.200 76.249 o
-4 15 1 0.081 0.030 0.110 246.723 o
-4 15 2 0.009 0.060 0.230 57.890 o
-3 0 -1 56.962 52.340 0.799 0.357 o
-3 0 1 2.523 1.898 0.100 86.522 o
-3 0 3 74.521 89.264 1.069 0.177 o
-3 0 5 1.659 1.818 0.130 92.556 o
-3 0 7 10.763 10.310 0.290 7.297 o
-3 0 9 0.317 0.290 0.170 99.855 o
-3 0 11 3.893 3.686 0.200 31.812 o
-3 1 -2 23.540 22.688 2.108 0.518 o
-3 1 -1 24.125 21.459 1.419 0.881 o
-3 1 0 172.023 157.978 7.323 0.025 o
-3 1 1 259.147 264.616 10.230 0.011 o
-3 1 2 142.322 151.884 4.905 0.039 o
-3 1 3 12.688 16.964 0.260 4.807 o
-3 1 4 1.463 1.239 0.539 10.111 o
-3 1 5 42.038 42.389 0.999 0.543 o
-3 1 6 15.132 16.484 0.320 3.885 o
-3 1 7 5.350 5.195 0.130 26.769 o
-3 1 8 3.287 3.187 0.130 50.879 o
-3 1 9 0.068 0.130 0.130 176.616 o
-3 1 10 2.071 1.608 0.180 59.507 o
-3 1 11 0.801 0.579 0.120 157.276 o
-3 1 12 1.612 1.509 0.090 136.069 o
-3 2 -2 4.462 4.236 0.300 19.071 o
-3 2 -1 18.279 16.145 0.679 2.317 o
-3 2 0 21.673 21.369 0.569 1.919 o
-3 2 1 5.149 4.426 0.160 27.561 o
-3 2 2 41.275 47.544 1.329 0.459 o
-3 2 3 82.801 79.414 2.657 0.127 o
-3 2 4 44.078 47.944 0.899 0.496 o
-3 2 5 15.022 15.425 0.290 4.166 o
-3 2 6 1.015 1.069 0.220 54.376 o
-3 2 7 0.037 0.070 0.190 84.454 o
-3 2 8 0.574 0.480 0.120 170.863 o
-3 2 9 0.044 0.230 0.190 83.706 o
-3 2 10 3.063 2.617 0.120 60.378 o
-3 2 11 0.194 0.190 0.170 102.350 o
-3 2 12 0.948 1.039 0.100 175.415 o
-3 3 -2 14.162 14.176 0.270 4.737 o
-3 3 -1 36.521 33.338 2.128 0.391 o
-3 3 0 49.730 41.970 3.876 0.147 o
-3 3 1 36.467 33.468 0.480 0.863 o
-3 3 2 66.073 64.228 0.879 0.260 o
-3 3 3 5.431 5.085 0.120 27.231 o
-3 3 4 19.007 18.133 0.290 2.906 o
-3 3 5 0.512 0.829 0.160 103.094 o
-3 3 6 14.918 14.286 0.250 4.518 o
-3 3 7 3.963 4.256 0.130 38.715 o
-3 3 8 1.926 2.228 0.210 47.270 o
-3 3 9 5.265 4.666 0.130 28.576 o
-3 3 10 0.785 0.849 0.110 171.133 o
-3 3 11 2.028 1.968 0.100 100.441 o
-3 3 12 0.628 0.569 0.100 217.706 o
-3 4 -2 13.536 12.888 0.220 5.472 o
-3 4 -1 1.501 3.886 2.378 0.540 o
-3 4 0 10.101 8.432 0.460 6.279 o
-3 4 1 15.006 13.857 0.629 3.048 o
-3 4 2 90.285 86.527 0.769 0.147 o
-3 4 3 58.154 62.690 0.819 0.311 o
-3 4 4 91.239 91.512 0.869 0.139 o
-3 4 5 14.201 15.535 0.400 3.976 o
-3 4 6 1.006 1.319 0.190 68.260 o
-3 4 7 0.812 0.879 0.110 168.670 o
-3 4 8 0.365 0.270 0.170 99.296 o
-3 4 9 1.677 1.389 0.110 115.386 o
-3 4 10 0.620 0.629 0.170 92.682 o
-3 4 11 0.717 0.739 0.100 203.348 o
-3 4 12 0.039 0.060 0.160 118.795 o
-3 5 -2 23.097 21.959 0.340 2.016 o
-3 5 -1 1.150 1.249 0.100 156.048 o
-3 5 0 0.566 0.430 0.090 267.094 o
-3 5 1 26.243 24.117 0.779 1.295 o
-3 5 2 0.797 0.949 0.090 214.285 o
-3 5 3 0.062 0.050 0.140 154.197 o
-3 5 4 3.338 2.887 0.110 56.705 o
-3 5 5 10.538 10.230 0.200 8.377 o
-3 5 6 1.509 1.209 0.110 125.695 o
-3 5 7 0.508 0.440 0.120 175.197 o
-3 5 8 2.624 2.208 0.150 60.305 o
-3 5 9 4.066 3.746 0.180 33.284 o
-3 5 10 2.354 1.908 0.120 80.645 o
-3 5 11 0.007 0.110 0.140 154.916 o
-3 5 12 0.030 0.130 0.120 208.313 o
-3 6 -2 0.022 0.070 0.150 135.252 o
-3 6 -1 17.222 16.204 0.559 2.757 o
-3 6 0 14.293 13.167 0.899 2.247 o
-3 6 1 5.127 4.666 0.110 30.747 o
-3 6 2 29.873 30.471 0.539 1.134 o
-3 6 3 84.899 79.704 0.879 0.166 o
-3 6 4 22.630 23.957 0.949 1.305 o
-3 6 5 11.413 11.469 0.220 7.066 o
-3 6 6 13.420 14.037 0.260 5.096 o
-3 6 7 1.328 1.738 0.290 31.614 o
-3 6 8 5.349 4.636 0.380 12.990 o
-3 6 9 0.053 0.200 0.120 205.240 o
-3 6 10 0.386 0.360 0.100 249.038 o
-3 6 11 0.572 0.569 0.100 222.493 o
-3 6 12 0.109 0.180 0.160 116.574 o
-3 7 -2 2.428 2.128 0.140 67.773 o
-3 7 -1 0.031 0.030 0.110 250.355 o
-3 7 0 0.374 0.360 0.110 213.644 o
-3 7 1 19.261 19.302 0.470 2.457 o
-3 7 2 0.503 0.669 0.270 40.084 o
-3 7 3 0.603 0.649 0.120 165.172 o
-3 7 4 1.480 1.608 0.110 118.748 o
-3 7 5 10.771 12.418 1.758 0.883 o
-3 7 6 0.000 0.040 0.160 119.602 o
-3 7 7 0.678 0.709 0.190 75.098 o
-3 7 8 1.758 1.608 0.140 85.723 o
-3 7 9 1.219 1.119 0.120 127.364 o
-3 7 10 0.136 0.250 0.130 171.673 o
-3 7 11 0.001 0.120 0.170 105.452 o
-3 8 -2 1.101 1.109 0.250 43.055 o
-3 8 -1 8.945 8.392 0.310 9.205 o
-3 8 0 2.177 2.048 0.110 88.659 o
-3 8 1 17.171 16.454 0.520 2.856 o
-3 8 2 11.714 10.600 0.210 7.230 o
-3 8 3 6.616 6.674 0.230 15.543 o
-3 8 4 9.240 8.961 0.230 9.915 o
-3 8 5 11.275 11.459 0.719 3.417 o
-3 8 6 0.787 0.849 0.130 134.960 o
-3 8 7 12.556 11.459 0.839 2.692 o
-3 8 8 0.394 0.330 0.150 123.839 o
-3 8 9 1.352 1.219 0.270 36.550 o
-3 8 10 0.494 0.460 0.100 234.333 o
-3 8 11 0.280 0.310 0.100 261.872 o
-3 9 -2 0.118 0.230 0.140 149.994 o
-3 9 -1 1.396 1.479 0.120 114.121 o
-3 9 0 13.432 13.287 0.250 5.296 o
-3 9 1 0.143 0.170 0.140 150.130 o
-3 9 2 12.882 12.967 0.240 5.672 o
-3 9 3 0.000 0.070 0.220 63.275 o
-3 9 4 2.702 3.127 0.140 56.177 o
-3 9 5 0.259 0.140 0.150 129.184 o
-3 9 6 5.622 5.535 0.609 6.404 o
-3 9 7 0.219 0.200 0.120 196.489 o
-3 9 8 0.006 0.070 0.200 76.484 o
-3 9 9 0.113 0.150 0.200 75.452 o
-3 9 10 0.006 0.180 0.120 208.246 o
-3 10 -2 0.994 0.749 0.110 162.022 o
-3 10 -1 0.194 0.390 0.340 26.215 o
-3 10 0 9.839 9.701 0.460 6.113 o
-3 10 1 0.003 0.050 0.180 94.482 o
-3 10 2 0.909 1.039 0.160 93.488 o
-3 10 3 0.351 0.619 0.390 19.823 o
-3 10 4 0.355 0.330 0.110 216.048 o
-3 10 5 0.668 0.589 0.110 186.285 o
-3 10 6 6.647 6.184 0.290 13.749 o
-3 10 7 0.678 0.759 0.130 140.653 o
-3 10 8 3.033 2.867 0.380 16.860 o
-3 10 9 0.103 0.160 0.120 203.679 o
-3 10 10 0.094 0.140 0.130 175.442 o
-3 11 -2 7.457 7.493 0.220 13.541 o
-3 11 -1 1.407 1.459 0.120 114.087 o
-3 11 0 1.519 1.678 0.100 125.863 o
-3 11 1 7.310 7.183 0.220 14.064 o
-3 11 2 0.004 0.070 0.190 84.729 o
-3 11 3 0.075 0.070 0.190 84.130 o
-3 11 4 0.774 0.649 0.110 177.812 o
-3 11 5 3.206 3.437 0.190 38.294 o
-3 11 6 0.391 0.300 0.120 184.868 o
-3 11 7 0.339 0.360 0.230 55.817 o
-3 11 8 0.682 0.679 0.200 68.657 o
-3 11 9 0.008 0.010 0.050 1205.870 o
-3 12 -2 0.419 0.520 0.110 204.977 o
-3 12 -1 2.884 2.657 0.250 31.694 o
-3 12 0 0.088 0.160 0.160 117.121 o
-3 12 1 0.444 0.500 0.120 176.960 o
-3 12 2 0.187 0.210 0.120 197.950 o
-3 12 3 1.065 1.219 0.120 131.502 o
-3 12 4 1.101 0.919 0.120 136.203 o
-3 12 5 0.137 0.330 0.130 170.068 o
-3 12 6 0.302 0.330 0.130 163.604 o
-3 12 7 1.699 1.808 0.120 99.067 o
-3 12 8 0.089 0.040 0.150 134.124 o
-3 13 -2 0.001 0.110 0.180 94.186 o
-3 13 -1 3.731 4.056 0.140 40.146 o
-3 13 0 0.415 0.330 0.120 182.809 o
-3 13 1 0.039 0.140 0.170 104.821 o
-3 13 2 0.081 0.250 0.130 173.816 o
-3 13 3 0.171 0.290 0.200 74.499 o
-3 13 4 0.453 0.270 0.130 158.810 o
-3 13 5 0.798 0.719 0.120 154.102 o
-3 13 6 0.115 0.170 0.130 174.045 o
-3 13 7 0.179 0.300 0.170 101.781 o
-3 14 -2 0.286 0.310 0.170 100.161 o
-3 14 -1 0.664 0.679 0.180 82.950 o
-3 14 0 0.246 0.350 0.130 165.400 o
-3 14 1 0.043 0.709 0.549 10.098 o
-3 14 2 0.734 0.659 0.120 158.593 o
-3 14 3 0.614 0.689 0.140 128.131 o
-3 14 4 0.583 0.729 0.130 144.842 o
-3 14 5 0.132 0.320 0.120 197.924 o
-3 14 6 0.109 0.160 0.180 92.768 o
-3 15 -2 2.026 2.218 0.160 64.728 o
-3 15 -1 0.041 0.210 0.180 93.238 o
-3 15 0 0.196 0.240 0.130 169.513 o
-3 15 1 0.204 0.210 0.140 147.751 o
-3 15 2 0.002 0.110 0.190 84.581 o
-3 15 3 0.189 0.200 0.170 102.344 o
-3 15 4 0.344 0.450 0.170 98.281 o
-2 0 0 74.785 66.706 0.709 0.222 o
-2 0 2 177.661 202.236 1.329 0.034 o
-2 0 4 74.162 78.585 0.949 0.197 o
-2 0 6 195.554 194.253 1.788 0.031 o
-2 0 8 26.835 24.257 0.410 1.544 o
-2 0 10 0.077 0.100 0.160 117.823 o
-2 0 12 0.178 0.190 0.170 102.574 o
-2 1 -1 54.623 54.238 2.807 0.197 o
-2 1 0 102.313 95.798 2.647 0.094 o
-2 1 1 142.052 129.715 5.225 0.041 o
-2 1 2 6.723 8.842 0.160 15.180 o
-2 1 3 9.170 10.220 0.290 8.524 o
-2 1 4 148.398 154.801 2.018 0.050 o
-2 1 5 8.955 10.120 0.190 10.134 o
-2 1 6 2.241 3.027 0.160 56.508 o
-2 1 7 0.648 0.529 0.100 217.650 o
-2 1 8 5.564 5.105 0.140 25.375 o
-2 1 9 0.070 0.220 0.110 240.538 o
-2 1 10 0.013 0.110 0.150 135.016 o
-2 1 11 1.411 1.299 0.090 153.570 o
-2 1 12 0.648 0.659 0.120 162.738 o
-2 1 13 0.240 0.220 0.150 128.707 o
-2 2 -1 7.998 9.920 0.360 8.502 o
-2 2 0 15.543 14.156 0.270 4.266 o
-2 2 1 105.306 101.852 1.279 0.105 o
-2 2 2 96.712 102.152 1.359 0.115 o
-2 2 3 0.938 0.579 0.160 97.306 o
-2 2 4 17.462 23.338 0.410 2.534 o
-2 2 5 130.254 138.857 1.449 0.065 o
-2 2 6 0.272 0.090 0.160 114.503 o
-2 2 7 61.532 58.624 0.779 0.304 o
-2 2 8 1.229 1.309 0.140 101.990 o
-2 2 9 1.746 1.519 0.090 129.043 o
-2 2 10 1.812 1.798 0.080 127.879 o
-2 2 11 0.028 0.100 0.160 118.642 o
-2 2 12 0.002 0.140 0.170 105.310 o
-2 3 -1 4.442 4.286 0.380 14.249 o
-2 3 0 5.827 5.275 0.330 14.090 o
-2 3 1 0.012 0.040 0.110 251.398 o
-2 3 2 2.028 1.698 0.070 127.316 o
-2 3 3 222.852 229.640 6.714 0.018 o
-2 3 4 0.101 0.160 0.120 203.769 o
-2 3 5 76.004 80.363 0.779 0.192 o
-2 3 6 0.118 0.260 0.180 92.109 o
-2 3 7 4.432 4.206 0.170 30.990 o
-2 3 8 1.668 1.728 0.150 79.868 o
-2 3 9 5.169 5.215 0.120 28.264 o
-2 3 10 1.444 1.339 0.090 150.347 o
-2 3 11 0.010 0.070 0.140 155.390 o
-2 3 12 0.211 0.390 0.130 165.974 o
-2 4 -1 110.870 97.566 4.256 0.065 o
-2 4 0 0.378 0.120 0.090 312.097 o
-2 4 1 38.551 40.022 0.949 0.625 o
-2 4 2 5.412 4.845 0.130 27.334 o
-2 4 3 101.556 114.300 2.118 0.093 o
-2 4 4 13.615 16.015 0.539 3.466 o
-2 4 5 0.066 0.060 0.160 118.337 o
-2 4 6 24.218 24.187 0.709 1.466 o
-2 4 7 0.213 0.170 0.130 170.217 o
-2 4 8 2.608 2.508 0.100 76.726 o
-2 4 9 4.381 4.256 0.090 39.464 o
-2 4 10 0.036 0.070 0.140 154.670 o
-2 4 11 0.792 0.989 0.100 188.144 o
-2 4 12 0.193 0.130 0.160 115.537 o
-2 5 -1 12.137 11.029 0.629 3.818 o
-2 5 0 5.198 4.825 0.200 23.473 o
-2 5 1 18.641 20.460 0.430 2.536 o
-2 5 2 79.374 75.328 0.699 0.191 o
-2 5 3 2.496 1.888 0.230 39.353 o
-2 5 4 122.272 123.501 3.467 0.061 o
-2 5 5 2.753 2.717 0.210 39.774 o
-2 5 6 2.602 2.348 0.310 24.547 o
-2 5 7 2.536 2.568 0.190 46.802 o
-2 5 8 7.963 8.772 0.270 10.765 o
-2 5 9 2.281 2.018 0.070 108.202 o
-2 5 10 1.341 1.329 0.100 143.142 o
-2 5 11 0.004 0.080 0.170 105.674 o
-2 5 12 0.066 0.100 0.150 133.956 o
-2 6 -1 0.005 0.080 0.130 180.001 o
-2 6 0 6.221 4.925 0.110 24.358 o
-2 6 1 0.640 0.390 0.090 260.549 o
-2 6 2 57.355 58.274 2.438 0.211 o
-2 6 3 1.637 1.179 0.100 132.002 o
-2 6 4 2.669 3.117 0.210 39.029 o
-2 6 5 0.016 0.130 0.150 134.738 o
-2 6 6 7.514 7.443 0.150 15.218 o
-2 6 7 0.225 0.270 0.110 227.489 o
-2 6 8 0.189 0.190 0.110 232.947 o
-2 6 9 0.005 0.100 0.140 155.108 o
-2 6 10 1.816 1.828 0.150 76.220 o
-2 6 11 0.264 0.260 0.120 192.558 o
-2 6 12 0.031 0.060 0.130 179.368 o
-2 7 -1 25.031 25.495 0.599 1.479 o
-2 7 0 71.228 68.344 0.739 0.232 o
-2 7 1 37.004 36.145 0.979 0.679 o
-2 7 2 10.813 11.839 0.360 6.157 o
-2 7 3 59.457 57.425 2.068 0.232 o
-2 7 4 5.399 4.965 0.130 27.095 o
-2 7 5 12.931 11.609 0.350 5.318 o
-2 7 6 0.063 0.040 0.150 134.688 o
-2 7 7 0.779 1.089 0.130 130.881 o
-2 7 8 3.237 2.917 0.210 36.150 o
-2 7 9 1.432 1.738 0.250 40.191 o
-2 7 10 0.027 0.050 0.160 119.085 o
-2 7 11 0.242 0.260 0.100 268.172 o
-2 8 -1 6.703 6.224 0.130 19.428 o
-2 8 0 0.152 0.030 0.110 241.497 o
-2 8 1 4.749 4.676 0.120 32.376 o
-2 8 2 7.135 6.444 0.130 17.846 o
-2 8 3 3.016 2.837 0.120 59.410 o
-2 8 4 0.082 0.320 0.140 149.707 o
-2 8 5 9.504 9.401 0.230 9.408 o
-2 8 6 6.370 5.954 0.130 20.964 o
-2 8 7 4.150 4.036 0.100 41.647 o
-2 8 8 0.599 0.629 0.090 251.435 o
-2 8 9 0.129 0.190 0.150 131.566 o
-2 8 10 0.515 0.470 0.100 231.987 o
-2 8 11 0.003 0.060 0.160 119.396 o
-2 9 -1 28.576 26.544 0.559 1.278 o
-2 9 0 16.334 16.534 0.420 3.288 o
-2 9 1 42.370 43.748 1.588 0.419 o
-2 9 2 14.431 14.506 0.529 3.496 o
-2 9 3 0.175 0.260 0.120 197.240 o
-2 9 4 2.506 2.338 0.170 54.152 o
-2 9 5 0.589 0.719 0.130 144.812 o
-2 9 6 0.004 0.120 0.160 118.887 o
-2 9 7 1.706 1.778 0.130 91.867 o
-2 9 8 0.002 0.100 0.160 119.077 o
-2 9 9 0.088 0.280 0.200 75.157 o
-2 9 10 0.013 0.090 0.170 105.496 o
-2 10 -1 3.220 3.407 0.130 50.370 o
-2 10 0 0.403 0.569 0.210 65.296 o
-2 10 1 3.329 3.207 0.130 50.258 o
-2 10 2 0.083 0.060 0.200 75.987 o
-2 10 3 3.341 3.487 0.140 46.514 o
-2 10 4 5.264 5.515 0.220 20.777 o
-2 10 5 2.712 2.428 0.200 43.376 o
-2 10 6 7.334 6.873 0.440 8.532 o
-2 10 7 1.917 1.798 0.180 60.188 o
-2 10 8 0.824 0.869 0.090 215.526 o
-2 10 9 0.483 0.380 0.230 55.077 o
-2 10 10 0.072 0.130 0.170 104.438 o
-2 11 -1 2.412 2.398 0.140 65.815 o
-2 11 0 15.037 15.066 1.219 1.440 o
-2 11 1 4.108 4.076 0.350 16.520 o
-2 11 2 3.317 3.587 0.150 44.307 o
-2 11 3 0.076 0.200 0.110 240.842 o
-2 11 4 0.340 0.300 0.150 125.463 o
-2 11 5 0.811 0.819 0.180 80.156 o
-2 11 6 0.143 0.110 0.160 116.603 o
-2 11 7 0.238 0.320 0.120 192.378 o
-2 11 8 0.261 0.180 0.130 168.154 o
-2 11 9 0.459 0.470 0.200 71.485 o
-2 12 -1 2.006 2.248 0.120 84.870 o
-2 12 0 0.168 0.390 0.120 194.208 o
-2 12 1 0.044 0.050 0.160 118.803 o
-2 12 2 4.266 4.316 0.130 36.081 o
-2 12 3 3.186 3.117 0.170 43.597 o
-2 12 4 0.215 0.420 0.180 90.091 o
-2 12 5 3.471 3.417 0.250 27.829 o
-2 12 6 0.655 0.639 0.100 212.496 o
-2 12 7 0.886 0.939 0.120 145.087 o
-2 12 8 0.223 0.280 0.170 101.290 o
-2 12 9 0.306 0.290 0.120 189.584 o
-2 13 -1 0.340 0.270 0.120 188.323 o
-2 13 0 1.311 1.329 0.120 119.868 o
-2 13 1 0.410 0.410 0.110 209.416 o
-2 13 2 0.019 0.030 0.110 251.271 o
-2 13 3 0.087 0.060 0.190 84.070 o
-2 13 4 2.179 2.248 0.130 75.781 o
-2 13 5 0.003 0.100 0.160 119.060 o
-2 13 6 0.004 0.110 0.170 105.480 o
-2 13 7 0.096 0.220 0.120 202.473 o
-2 13 8 0.967 0.989 0.160 92.853 o
-2 14 -1 1.640 1.768 0.130 93.711 o
-2 14 0 0.134 0.190 0.140 150.093 o
-2 14 1 0.407 0.559 0.120 177.316 o
-2 14 2 1.574 1.658 0.110 114.187 o
-2 14 3 1.171 1.259 0.120 126.483 o
-2 14 4 1.210 1.119 0.100 156.294 o
-2 14 5 0.017 0.060 0.160 119.161 o
-2 14 6 0.040 0.140 0.140 153.537 o
-2 15 -1 0.148 0.020 0.080 439.874 o
-2 15 0 0.495 0.450 0.130 153.651 o
-2 15 1 0.211 0.350 0.120 192.998 o
-2 15 2 0.445 0.450 0.130 155.598 o
-2 15 3 0.620 0.609 0.120 165.315 o
-2 15 4 0.020 0.050 0.150 135.508 o
-2 15 5 0.251 0.310 0.110 224.139 o
-2 16 -1 0.330 0.480 0.110 212.547 o
-2 16 0 0.039 0.140 0.170 104.814 o
-2 16 1 0.272 0.300 0.140 144.377 o
-2 16 2 0.177 0.190 0.140 148.827 o
-1 0 1 617.597 671.076 4.486 0.003 o
-1 0 3 7.573 7.203 0.200 14.114 o
-1 0 5 104.242 113.101 0.839 0.102 o
-1 0 7 1.946 2.128 0.150 71.331 o
-1 0 9 2.887 2.917 0.190 42.520 o
-1 0 11 0.007 0.160 0.190 84.324 o
-1 0 13 0.174 0.320 0.170 101.712 o
-1 1 0 799.796 686.851 28.752 0.001 o
-1 1 1 332.561 325.947 6.164 0.010 o
-1 1 2 319.074 314.098 6.634 0.010 o
-1 1 3 17.912 15.965 0.270 3.384 o
-1 1 4 63.889 67.565 0.569 0.273 o
-1 1 5 24.279 23.697 0.300 1.845 o
-1 1 6 62.953 60.632 0.909 0.284 o
-1 1 7 42.253 42.060 3.387 0.190 o
-1 1 8 7.801 7.832 0.150 14.233 o
-1 1 9 0.412 0.579 0.130 154.356 o
-1 1 10 0.693 0.659 0.110 182.496 o
-1 1 11 1.494 1.499 0.120 110.420 o
-1 1 12 0.721 0.729 0.120 157.524 o
-1 1 13 0.060 0.050 0.160 118.520 o
-1 2 0 82.142 78.665 5.665 0.063 o
-1 2 1 3.221 3.277 0.090 59.915 o
-1 2 2 45.251 49.523 1.449 0.394 o
-1 2 3 2.346 2.837 0.200 44.594 o
-1 2 4 76.445 85.378 4.356 0.087 o
-1 2 5 9.964 9.521 0.150 9.765 o
-1 2 6 17.403 19.002 0.430 2.838 o
-1 2 7 4.544 4.116 0.420 12.391 o
-1 2 8 2.643 2.607 0.210 40.861 o
-1 2 9 8.658 8.292 0.619 5.025 o
-1 2 10 1.099 1.139 0.180 74.334 o
-1 2 11 0.698 0.749 0.110 179.404 o
-1 2 12 0.092 0.150 0.170 104.032 o
-1 3 0 338.673 311.751 5.754 0.010 o
-1 3 1 230.491 230.908 4.376 0.020 o
-1 3 2 74.175 73.939 2.318 0.158 o
-1 3 3 176.701 189.428 3.527 0.032 o
-1 3 4 34.303 36.475 0.390 0.903 o
-1 3 5 48.738 49.782 0.819 0.442 o
-1 3 6 29.688 27.384 1.089 0.896 o
-1 3 7 6.396 6.044 0.559 6.902 o
-1 3 8 9.787 8.702 0.370 7.525 o
-1 3 9 0.001 0.190 0.110 246.695 o
-1 3 10 0.417 0.450 0.110 207.524 o
-1 3 11 0.228 0.170 0.140 147.626 o
-1 3 12 0.108 0.200 0.130 173.730 o
-1 4 0 0.339 0.400 0.060 529.454 o
-1 4 1 5.013 4.825 0.090 32.257 o
-1 4 2 42.023 44.957 1.379 0.455 o
-1 4 3 6.207 6.724 0.110 20.875 o
-1 4 4 18.210 14.916 0.340 3.279 o
-1 4 5 5.253 4.995 0.090 30.167 o
-1 4 6 0.291 0.100 0.150 128.915 o
-1 4 7 2.735 2.947 0.490 11.188 o
-1 4 8 20.105 19.102 2.558 0.402 o
-1 4 9 4.389 4.506 0.330 16.962 o
-1 4 10 6.674 6.364 0.180 17.589 o
-1 4 11 0.323 0.260 0.130 164.150 o
-1 4 12 0.006 0.130 0.150 134.953 o
-1 5 0 3.992 2.807 0.120 46.861 o
-1 5 1 0.005 0.090 0.090 370.885 o
-1 5 2 100.708 105.319 3.357 0.081 o
-1 5 3 69.088 72.940 1.459 0.207 o
-1 5 4 52.588 53.798 0.510 0.407 o
-1 5 5 0.203 0.150 0.100 277.732 o
-1 5 6 0.423 0.290 0.090 294.228 o
-1 5 7 12.491 11.919 0.739 3.102 o
-1 5 8 0.417 2.348 1.738 1.011 o
-1 5 9 0.403 0.250 0.140 141.168 o
-1 5 10 0.100 0.100 0.160 117.418 o
-1 5 11 0.039 0.230 0.150 133.140 o
-1 5 12 0.026 0.090 0.180 94.029 o
-1 6 0 42.493 43.408 2.298 0.304 o
-1 6 1 37.177 37.224 1.259 0.586 o
-1 6 2 15.237 14.796 0.390 3.840 o
-1 6 3 0.000 0.959 0.659 7.018 o
-1 6 4 0.204 0.490 0.090 310.489 o
-1 6 5 13.212 11.839 0.230 5.839 o
-1 6 6 9.379 10.310 0.649 4.339 o
-1 6 7 4.079 4.116 0.140 37.087 o
-1 6 8 6.461 6.793 0.220 16.107 o
-1 6 9 10.091 10.060 0.280 7.977 o
-1 6 10 1.497 1.499 0.130 101.244 o
-1 6 11 0.337 0.460 0.130 159.647 o
-1 6 12 0.313 0.320 0.140 142.843 o
-1 7 0 4.560 4.436 0.240 23.224 o
-1 7 1 0.310 0.120 0.120 193.832 o
-1 7 2 9.159 9.061 0.270 9.343 o
-1 7 3 24.718 26.445 0.589 1.478 o
-1 7 4 1.795 1.758 0.100 112.642 o
-1 7 5 0.012 0.120 0.140 154.638 o
-1 7 6 2.932 2.907 0.100 65.841 o
-1 7 7 6.091 6.314 0.260 15.764 o
-1 7 8 1.055 0.959 0.090 191.121 o
-1 7 9 0.001 0.000 0.040 1914.640 o
-1 7 10 0.021 0.070 0.190 84.584 o
-1 7 11 0.896 0.879 0.190 71.851 o
-1 8 0 4.012 3.387 0.340 17.892 o
-1 8 1 61.229 61.950 3.287 0.149 o
-1 8 2 7.699 7.113 0.260 12.408 o
-1 8 3 2.516 2.148 0.090 87.922 o
-1 8 4 5.666 5.525 0.130 24.538 o
-1 8 5 13.806 15.425 0.529 3.530 o
-1 8 6 1.164 0.989 0.100 163.019 o
-1 8 7 7.944 7.942 0.230 12.184 o
-1 8 8 2.458 2.657 0.270 30.097 o
-1 8 9 0.945 1.149 0.220 54.574 o
-1 8 10 0.394 0.480 0.120 180.013 o
-1 8 11 0.460 0.659 0.120 172.047 o
-1 9 0 25.112 24.796 1.109 1.050 o
-1 9 1 0.811 0.919 0.150 106.905 o
-1 9 2 0.100 0.190 0.110 239.480 o
-1 9 3 3.481 3.347 0.100 53.442 o
-1 9 4 0.005 0.170 0.170 105.064 o
-1 9 5 3.277 3.157 0.140 48.972 o
-1 9 6 8.291 7.393 0.300 10.541 o
-1 9 7 0.453 0.470 0.090 278.511 o
-1 9 8 1.487 1.409 0.100 133.707 o
-1 9 9 0.050 0.010 0.080 465.615 o
-1 9 10 0.898 1.009 0.120 142.988 o
-1 9 11 0.130 0.190 0.190 83.120 o
-1 10 0 26.535 27.164 1.708 0.633 o
-1 10 1 3.610 3.507 0.100 50.654 o
-1 10 2 14.381 14.266 0.549 3.445 o
-1 10 3 0.058 0.240 0.150 132.598 o
-1 10 4 4.035 4.666 0.150 34.233 o
-1 10 5 1.816 1.858 0.230 43.350 o
-1 10 6 7.401 7.393 0.400 9.155 o
-1 10 7 0.024 0.200 0.140 153.135 o
-1 10 8 0.171 0.230 0.110 232.861 o
-1 10 9 0.000 0.040 0.120 212.166 o
-1 10 10 0.007 0.180 0.130 178.012 o
-1 11 0 0.226 0.220 0.130 168.751 o
-1 11 1 2.691 2.677 0.110 69.520 o
-1 11 2 12.265 12.798 0.400 5.019 o
-1 11 3 0.007 0.050 0.180 94.436 o
-1 11 4 13.040 12.158 0.749 2.967 o
-1 11 5 2.147 1.898 0.110 91.580 o
-1 11 6 0.990 0.869 0.090 200.410 o
-1 11 7 2.048 2.048 0.100 98.465 o
-1 11 8 0.002 0.020 0.070 621.409 o
-1 11 9 0.126 0.220 0.120 200.907 o
-1 12 0 0.313 0.350 0.090 305.052 o
-1 12 1 7.179 7.173 0.120 17.006 o
-1 12 2 0.044 0.020 0.090 370.298 o
-1 12 3 0.011 0.080 0.190 84.630 o
-1 12 4 0.155 0.080 0.150 132.231 o
-1 12 5 3.041 2.957 0.120 58.133 o
-1 12 6 0.046 0.110 0.170 104.924 o
-1 12 7 0.026 0.100 0.160 118.688 o
-1 12 8 0.184 0.190 0.120 198.642 o
-1 12 9 0.336 0.410 0.100 251.496 o
-1 13 0 0.554 0.430 0.090 268.462 o
-1 13 1 3.510 3.437 0.220 31.665 o
-1 13 2 0.000 0.060 0.130 180.550 o
-1 13 3 14.149 13.887 0.699 2.904 o
-1 13 4 0.071 0.110 0.180 93.449 o
-1 13 5 3.169 2.947 0.130 53.863 o
-1 13 6 0.358 0.410 0.130 159.791 o
-1 13 7 0.013 0.110 0.160 118.811 o
-1 13 8 0.009 0.090 0.150 135.306 o
-1 14 0 0.102 0.200 0.130 173.956 o
-1 14 1 0.738 0.629 0.090 236.214 o
-1 14 2 0.255 0.360 0.100 261.837 o
-1 14 3 0.115 0.320 0.130 171.148 o
-1 14 4 0.338 0.350 0.130 161.773 o
-1 14 5 0.171 0.200 0.160 115.323 o
-1 14 6 0.002 0.150 0.170 105.241 o
-1 14 7 0.001 0.100 0.160 119.089 o
-1 15 0 0.009 0.130 0.160 118.721 o
-1 15 1 0.121 0.110 0.170 103.911 o
-1 15 2 3.863 4.126 0.110 42.799 o
-1 15 3 0.007 0.040 0.160 119.495 o
-1 15 4 2.931 3.027 0.140 53.852 o
-1 15 5 0.000 0.060 0.180 94.452 o
-1 16 0 0.714 0.679 0.100 206.001 o
-1 16 1 0.006 0.070 0.160 119.266 o
-1 16 2 0.635 0.599 0.110 188.073 o
-1 16 3 0.017 0.180 0.130 177.614 o
0 0 2 990.916 936.021 6.064 0.001 o
0 0 4 17.632 16.134 0.450 2.995 o
0 0 6 1.355 1.938 0.140 91.117 o
0 0 8 1.424 1.519 0.160 79.759 o
0 0 10 3.839 3.676 0.170 36.354 o
0 0 12 3.232 3.317 0.190 38.532 o
0 1 1 37.226 48.194 1.519 0.458 o
0 1 2 407.798 424.123 10.610 0.006 o
0 1 3 7.768 6.024 0.300 11.967 o
0 1 4 1.110 1.469 0.070 203.286 o
0 1 5 32.407 32.049 0.470 1.026 o
0 1 6 20.259 19.631 0.310 2.549 o
0 1 7 7.204 6.414 0.390 9.947 o
0 1 8 0.806 0.889 0.120 149.800 o
0 1 9 0.647 0.799 0.270 39.484 o
0 1 10 3.905 3.726 0.120 42.980 o
0 1 11 0.525 0.599 0.220 59.012 o
0 1 12 0.098 0.170 0.170 103.815 o
0 2 0 0.387 2.118 0.060 280.218 o
0 2 1 2025.000 1951.080 88.565 0.000 o
0 2 2 40.495 40.311 1.828 0.402 o
0 2 3 0.012 0.060 0.080 468.877 o
0 2 4 55.708 56.526 1.608 0.287 o
0 2 5 3.110 2.787 0.100 63.690 o
0 2 6 0.075 0.050 0.150 134.321 o
0 2 7 3.920 4.286 0.400 13.835 o
0 2 8 7.105 7.123 0.919 3.040 o
0 2 9 0.145 0.200 0.110 235.783 o
0 2 10 0.923 0.929 0.120 143.638 o
0 2 11 3.283 3.417 0.230 31.346 o
0 2 12 0.005 0.050 0.160 119.440 o
0 3 1 308.071 308.614 5.115 0.012 o
0 3 2 7.536 11.219 0.470 6.696 o
0 3 3 238.469 250.200 12.548 0.010 o
0 3 4 3.527 6.164 0.450 11.205 o
0 3 5 0.030 0.110 0.100 297.981 o
0 3 6 2.379 2.148 0.190 50.029 o
0 3 7 0.536 0.529 0.110 196.778 o
0 3 8 0.118 0.280 0.180 92.004 o
0 3 9 9.635 9.511 0.629 4.536 o
0 3 10 0.023 0.160 0.130 177.782 o
0 3 11 1.329 1.389 0.120 118.098 o
0 3 12 0.085 0.190 0.160 116.911 o
0 4 0 316.953 323.290 1.748 0.012 o
0 4 1 16.998 17.733 0.490 2.862 o
0 4 2 28.600 25.575 1.139 0.918 o
0 4 3 74.908 75.028 3.676 0.110 o
0 4 4 0.923 0.569 0.180 80.320 o
0 4 5 14.605 14.736 0.909 2.131 o
0 4 6 2.341 2.168 0.150 64.692 o
0 4 7 13.189 12.408 1.339 1.346 o
0 4 8 1.080 0.999 0.480 12.864 o
0 4 9 6.982 6.863 0.370 10.459 o
0 4 10 0.283 0.260 0.120 191.549 o
0 4 11 0.060 0.070 0.140 153.978 o
0 4 12 0.272 0.310 0.140 144.227 o
0 5 1 31.884 32.449 0.899 0.866 o
0 5 2 223.074 231.757 4.835 0.020 o
0 5 3 12.934 14.746 0.909 2.263 o
0 5 4 44.127 49.413 1.718 0.363 o
0 5 5 4.788 4.825 0.370 13.985 o
0 5 6 4.242 4.526 0.160 32.238 o
0 5 7 2.362 2.637 0.150 60.956 o
0 5 8 10.443 10.740 1.059 2.108 o
0 5 9 0.066 0.030 0.130 178.626 o
0 5 10 4.000 4.226 0.150 36.004 o
0 5 11 0.024 0.120 0.170 105.142 o
0 5 12 0.003 0.110 0.160 118.979 o
0 6 0 44.778 43.618 0.809 0.529 o
0 6 1 0.009 0.160 0.070 588.276 o
0 6 2 2.853 3.297 0.110 61.070 o
0 6 3 1.326 1.189 0.090 162.547 o
0 6 4 36.270 37.274 1.269 0.596 o
0 6 5 4.150 3.946 0.240 25.467 o
0 6 6 0.875 0.879 0.110 165.076 o
0 6 7 1.311 1.279 0.130 109.977 o
0 6 8 9.557 9.441 0.360 7.570 o
0 6 9 0.133 0.020 0.080 443.674 o
0 6 10 0.295 0.350 0.190 80.835 o
0 6 11 0.073 0.270 0.180 92.558 o
0 6 12 0.096 0.070 0.200 75.855 o
0 7 1 21.488 23.248 0.460 1.989 o
0 7 2 27.522 26.125 0.669 1.270 o
0 7 3 41.992 43.428 1.638 0.414 o
0 7 4 4.484 4.805 0.450 11.000 o
0 7 5 13.412 13.277 0.589 3.553 o
0 7 6 21.707 22.988 1.309 1.005 o
0 7 7 8.905 8.552 0.500 6.282 o
0 7 8 1.189 1.229 0.140 104.102 o
0 7 9 4.024 4.026 0.160 35.253 o
0 7 10 0.311 0.180 0.150 127.537 o
0 7 11 0.101 0.270 0.120 200.879 o
0 8 0 27.776 25.825 0.520 1.365 o
0 8 1 23.403 22.319 0.330 1.974 o
0 8 2 1.281 1.169 0.080 183.181 o
0 8 3 2.041 2.318 0.090 100.290 o
0 8 4 7.675 7.633 0.440 8.076 o
0 8 5 0.811 0.839 0.120 150.727 o
0 8 6 1.603 1.608 0.130 96.784 o
0 8 7 2.812 2.707 0.240 33.599 o
0 8 8 0.001 0.030 0.130 181.096 o
0 8 9 0.232 0.210 0.130 168.719 o
0 8 10 0.229 0.400 0.280 38.332 o
0 8 11 0.376 0.500 0.120 180.458 o
0 9 1 5.898 5.495 0.120 24.082 o
0 9 2 1.311 1.529 0.090 152.675 o
0 9 3 0.051 0.120 0.150 134.068 o
0 9 4 3.813 4.246 0.170 34.617 o
0 9 5 21.534 22.409 1.349 0.982 o
0 9 6 5.393 5.135 0.130 26.706 o
0 9 7 8.087 8.202 0.160 13.180 o
0 9 8 1.964 1.918 0.120 90.112 o
0 9 9 0.026 0.030 0.110 250.721 o
0 9 10 0.044 0.070 0.200 76.222 o
0 10 0 26.028 26.055 0.599 1.403 o
0 10 1 6.318 6.474 0.310 13.307 o
0 10 2 8.628 8.002 0.220 11.395 o
0 10 3 5.473 5.754 0.290 16.109 o
0 10 4 0.378 0.280 0.110 216.186 o
0 10 5 4.892 4.666 0.130 30.697 o
0 10 6 0.324 0.220 0.150 126.756 o
0 10 7 0.106 0.040 0.150 133.746 o
0 10 8 0.003 0.080 0.180 94.324 o
0 10 9 0.047 0.040 0.160 118.827 o
0 10 10 0.580 0.669 0.130 146.107 o
0 11 1 1.344 1.299 0.130 108.654 o
0 11 2 0.932 0.869 0.110 162.170 o
0 11 3 1.271 1.039 0.110 140.188 o
0 11 4 3.711 3.976 0.100 46.583 o
0 11 5 0.755 0.879 0.110 172.038 o
0 11 6 6.317 6.634 0.330 12.507 o
0 11 7 0.855 0.939 0.110 164.516 o
0 11 8 0.139 0.220 0.150 131.005 o
0 11 9 0.014 0.190 0.130 177.542 o
0 12 0 1.243 1.379 0.170 77.193 o
0 12 1 6.381 5.954 0.230 16.804 o
0 12 2 1.288 0.999 0.080 189.817 o
0 12 3 3.772 3.347 0.100 49.614 o
0 12 4 6.143 6.004 0.110 22.446 o
0 12 5 0.823 0.619 0.090 227.944 o
0 12 6 0.047 0.140 0.190 84.065 o
0 12 7 0.089 0.250 0.130 173.518 o
0 12 8 0.606 0.669 0.130 145.088 o
0 13 1 0.100 0.040 0.140 153.261 o
0 13 2 4.114 3.946 0.100 42.447 o
0 13 3 0.021 0.100 0.150 134.938 o
0 13 4 0.368 0.220 0.110 219.036 o
0 13 5 0.614 0.679 0.100 214.184 o
0 13 6 0.367 0.340 0.130 160.812 o
0 13 7 0.017 0.050 0.170 105.701 o
0 13 8 0.008 0.040 0.150 135.863 o
0 14 0 0.231 0.170 0.190 82.289 o
0 14 1 0.476 0.619 0.240 50.314 o
0 14 2 1.167 1.159 0.090 174.764 o
0 14 3 2.865 2.927 0.100 66.923 o
0 14 4 1.636 1.419 0.180 65.782 o
0 14 5 0.484 0.460 0.110 202.633 o
0 14 6 0.013 0.030 0.130 180.642 o
0 14 7 0.351 0.310 0.120 186.658 o
0 15 1 0.842 0.869 0.180 79.423 o
0 15 2 0.000 0.200 0.130 177.897 o
0 15 3 0.961 1.029 0.100 174.829 o
0 15 4 0.036 0.160 0.130 177.267 o
0 15 5 0.070 0.100 0.140 153.252 o
0 16 0 0.530 0.400 0.190 78.259 o
0 16 1 0.108 0.160 0.170 103.743 o
0 16 2 0.747 0.759 0.130 138.096 o
0 16 3 0.429 0.400 0.180 87.652 o
1 0 1 0.028 0.190 0.060 759.328 o
1 0 3 189.391 193.474 1.359 0.033 o
1 0 5 0.920 0.719 0.120 148.482 o
1 0 7 5.729 5.705 0.190 20.782 o
1 0 9 2.145 2.178 0.160 63.336 o
1 0 11 2.896 3.247 0.180 43.351 o
1 1 1 767.408 747.492 28.313 0.001 o
1 1 2 52.598 57.505 3.836 0.137 o
1 1 3 0.016 0.030 0.090 373.965 o
1 1 4 41.493 38.433 0.709 0.639 o
1 1 5 61.963 62.060 0.929 0.285 o
1 1 6 31.544 31.220 0.999 0.845 o
1 1 7 3.949 3.876 0.130 40.458 o
1 1 8 4.371 4.306 0.370 14.842 o
1 1 9 0.025 0.080 0.200 76.315 o
1 1 10 1.266 1.169 0.150 93.745 o
1 1 11 0.456 0.470 0.120 177.106 o
1 1 12 0.454 0.549 0.130 153.312 o
1 2 1 196.086 182.375 6.224 0.023 o
1 2 2 242.534 234.335 8.392 0.014 o
1 2 3 219.214 235.524 10.130 0.013 o
1 2 4 49.590 51.281 1.668 0.329 o
1 2 5 11.111 12.488 0.210 6.996 o
1 2 6 2.837 2.867 0.340 20.370 o
1 2 7 1.233 1.099 0.140 104.653 o
1 2 8 0.011 0.010 0.090 376.516 o
1 2 9 0.137 0.070 0.190 83.586 o
1 2 10 2.818 2.717 0.130 60.418 o
1 2 11 0.002 0.260 0.210 68.873 o
1 2 12 0.462 0.430 0.120 177.824 o
1 3 1 2.605 2.877 0.140 59.226 o
1 3 2 155.032 139.876 0.799 0.053 o
1 3 3 6.249 5.964 0.150 20.572 o
1 3 4 27.142 27.564 0.959 1.050 o
1 3 5 10.213 9.331 0.350 7.309 o
1 3 6 7.239 6.734 0.579 6.163 o
1 3 7 9.920 9.851 0.679 4.047 o
1 3 8 2.815 2.967 0.480 11.547 o
1 3 9 4.066 4.176 0.290 20.806 o
1 3 10 0.311 0.350 0.170 99.502 o
1 3 11 0.644 0.759 0.120 160.486 o
1 3 12 0.363 0.450 0.120 182.402 o
1 4 1 52.234 53.978 1.129 0.360 o
1 4 2 283.996 283.038 3.357 0.014 o
1 4 3 110.859 110.264 2.717 0.080 o
1 4 4 100.457 102.981 2.617 0.093 o
1 4 5 8.453 8.602 0.619 5.038 o
1 4 6 0.310 0.130 0.160 113.448 o
1 4 7 0.193 0.040 0.120 202.077 o
1 4 8 1.883 1.838 0.230 43.014 o
1 4 9 0.690 0.649 0.110 183.003 o
1 4 10 0.005 0.100 0.180 94.203 o
1 4 11 0.161 0.410 0.270 41.311 o
1 4 12 0.046 0.120 0.170 104.856 o
1 5 1 119.578 111.613 1.369 0.084 o
1 5 2 18.819 17.783 0.659 2.218 o
1 5 3 1.441 1.069 0.090 158.936 o
1 5 4 2.093 2.707 0.130 72.942 o
1 5 5 5.356 5.195 0.340 14.379 o
1 5 6 0.003 0.100 0.150 135.326 o
1 5 7 2.344 2.657 0.450 13.334 o
1 5 8 3.460 3.497 0.120 49.002 o
1 5 9 2.890 3.127 0.100 64.593 o
1 5 10 0.970 1.099 0.120 137.949 o
1 5 11 0.008 0.080 0.190 84.650 o
1 6 1 35.133 36.815 1.778 0.470 o
1 6 2 52.400 52.899 2.118 0.263 o
1 6 3 124.719 123.172 4.436 0.052 o
1 6 4 25.494 24.317 2.008 0.534 o
1 6 5 5.783 4.885 0.290 16.343 o
1 6 6 7.391 7.453 0.579 5.993 o
1 6 7 2.855 3.157 0.330 21.006 o
1 6 8 0.986 0.959 0.110 156.734 o
1 6 9 0.012 0.220 0.130 177.069 o
1 6 10 0.036 0.270 0.170 103.981 o
1 6 11 0.074 0.020 0.090 365.481 o
1 7 1 45.191 43.308 2.318 0.290 o
1 7 2 6.956 5.924 0.440 9.101 o
1 7 3 0.441 0.390 0.100 242.471 o
1 7 4 0.068 0.210 0.110 241.072 o
1 7 5 14.734 15.075 0.430 3.776 o
1 7 6 0.500 0.559 0.150 118.583 o
1 7 7 0.178 0.250 0.150 129.780 o
1 7 8 1.724 1.578 0.120 101.780 o
1 7 9 0.624 0.679 0.160 102.389 o
1 7 10 0.050 0.090 0.230 57.670 o
1 7 11 0.011 0.100 0.170 105.452 o
1 8 1 39.931 40.551 2.148 0.347 o
1 8 2 17.829 19.671 1.608 0.868 o
1 8 3 11.139 10.650 0.799 3.076 o
1 8 4 7.679 7.203 0.360 9.900 o
1 8 5 11.156 10.690 0.510 4.954 o
1 8 6 0.977 1.199 0.130 122.070 o
1 8 7 5.053 4.785 0.330 15.634 o
1 8 8 0.177 0.180 0.130 171.439 o
1 8 9 0.000 0.030 0.110 252.645 o
1 8 10 0.322 0.390 0.120 186.101 o
1 9 1 0.291 0.150 0.160 113.612 o
1 9 2 7.127 6.873 0.440 8.667 o
1 9 3 0.172 0.070 0.200 75.314 o
1 9 4 11.948 12.248 0.430 5.030 o
1 9 5 0.309 0.150 0.170 100.999 o
1 9 6 6.875 6.774 0.140 17.825 o
1 9 7 0.047 0.110 0.160 118.247 o
1 9 8 0.002 0.100 0.170 105.574 o
1 9 9 0.126 0.140 0.170 103.633 o
1 9 10 0.003 0.010 0.050 1215.360 o
1 10 1 0.700 0.719 0.110 180.163 o
1 10 2 1.300 1.439 0.190 64.416 o
1 10 3 0.021 0.210 0.140 153.095 o
1 10 4 0.761 0.829 0.130 136.286 o
1 10 5 0.421 0.440 0.110 207.614 o
1 10 6 4.826 4.805 0.200 24.925 o
1 10 7 0.124 0.350 0.230 56.817 o
1 10 8 0.638 0.699 0.190 75.582 o
1 10 9 0.253 0.260 0.120 193.138 o
1 11 1 7.714 7.803 0.529 6.517 o
1 11 2 0.199 0.450 0.130 165.283 o
1 11 3 0.500 0.579 0.100 228.334 o
1 11 4 0.203 0.180 0.120 197.866 o
1 11 5 5.187 5.445 0.140 26.332 o
1 11 6 0.005 0.170 0.130 178.276 o
1 11 7 0.409 0.370 0.120 182.113 o
1 11 8 1.066 1.229 0.150 97.506 o
1 11 9 0.000 0.100 0.170 105.594 o
1 12 1 0.310 0.380 0.110 217.485 o
1 12 2 1.431 1.529 0.110 122.314 o
1 12 3 1.441 1.309 0.150 88.550 o
1 12 4 0.958 1.039 0.100 174.700 o
1 12 5 0.259 0.300 0.200 73.792 o
1 12 6 0.006 0.080 0.170 105.653 o
1 12 7 1.018 1.249 0.120 132.814 o
1 12 8 0.240 0.150 0.180 91.363 o
1 13 1 0.371 0.430 0.110 211.413 o
1 13 2 0.088 0.140 0.170 104.158 o
1 13 3 0.013 0.050 0.170 105.748 o
1 13 4 0.435 0.520 0.120 176.915 o
1 13 5 0.047 0.080 0.220 63.033 o
1 13 6 0.088 0.200 0.160 116.771 o
1 13 7 0.732 0.819 0.150 109.956 o
1 14 1 0.067 0.090 0.180 93.602 o
1 14 2 1.481 1.449 0.110 121.912 o
1 14 3 0.914 0.959 0.120 143.382 o
1 14 4 0.556 0.599 0.170 93.906 o
1 14 5 0.004 0.110 0.180 94.156 o
1 14 6 0.151 0.360 0.250 48.145 o
1 15 1 0.111 0.220 0.110 237.592 o
1 15 2 0.195 0.230 0.130 169.745 o
1 15 3 0.000 0.060 0.180 94.454 o
1 15 4 0.053 0.120 0.170 104.759 o
1 15 5 0.115 0.090 0.180 93.085 o
1 16 1 0.280 0.140 0.190 81.977 o
1 16 2 0.034 0.080 0.210 69.208 o
1 16 3 0.406 0.500 0.210 65.518 o
2 0 2 7.877 12.118 0.280 8.963 o
2 0 4 87.778 94.070 1.139 0.140 o
2 0 6 87.234 92.421 1.369 0.139 o
2 0 8 4.409 4.805 0.220 24.834 o
2 0 10 0.198 0.000 0.110 239.262 o
2 0 12 0.004 0.180 0.180 93.784 o
2 1 2 31.498 32.249 2.558 0.332 o
2 1 3 12.442 12.428 0.539 4.133 o
2 1 4 69.457 70.922 2.707 0.154 o
2 1 5 9.315 8.772 0.140 11.138 o
2 1 6 0.694 0.679 0.100 207.630 o
2 1 7 0.441 0.370 0.120 180.431 o
2 1 8 1.369 1.519 0.130 104.635 o
2 1 9 0.494 0.759 0.230 54.066 o
2 1 10 0.067 0.150 0.140 152.619 o
2 1 11 0.563 0.490 0.130 150.237 o
2 1 12 0.150 0.240 0.190 82.711 o
2 2 2 98.208 95.868 4.316 0.072 o
2 2 3 2.202 2.158 0.080 103.094 o
2 2 4 8.075 7.832 0.510 6.653 o
2 2 5 78.504 83.680 4.506 0.083 o
2 2 6 0.001 0.160 0.160 118.594 o
2 2 7 18.607 19.861 1.648 0.824 o
2 2 8 0.474 0.539 0.140 134.644 o
2 2 9 0.012 1.549 1.029 2.885 o
2 2 10 0.198 0.270 0.170 101.731 o
2 2 11 0.038 0.140 0.200 76.022 o
2 3 2 1.497 1.638 0.080 150.340 o
2 3 3 124.043 126.598 7.133 0.034 o
2 3 4 0.013 0.110 0.150 134.998 o
2 3 5 15.020 15.245 0.879 2.159 o
2 3 6 2.268 2.008 0.110 86.762 o
2 3 7 5.933 6.644 0.230 17.037 o
2 3 8 2.104 1.938 0.110 92.226 o
2 3 9 2.289 2.118 0.569 8.797 o
2 3 10 0.636 0.599 0.120 164.766 o
2 3 11 0.001 0.100 0.190 84.631 o
2 4 2 4.086 4.715 0.170 31.511 o
2 4 3 50.936 48.284 0.619 0.445 o
2 4 4 9.231 8.871 0.330 8.439 o
2 4 5 0.050 0.130 0.150 133.998 o
2 4 6 11.063 11.129 0.859 2.780 o
2 4 7 0.009 0.140 0.170 105.213 o
2 4 8 0.557 0.599 0.110 193.075 o
2 4 9 0.913 0.859 0.140 116.843 o
2 4 10 0.001 0.020 0.110 252.980 o
2 4 11 0.003 0.120 0.180 94.111 o
2 5 2 53.424 53.199 2.518 0.224 o
2 5 3 5.608 5.435 0.110 26.009 o
2 5 4 35.931 36.315 1.918 0.431 o
2 5 5 0.677 4.755 3.447 0.258 o
2 5 6 1.128 1.199 0.120 129.378 o
2 5 7 2.122 2.258 0.450 13.612 o
2 5 8 6.846 7.013 0.250 14.114 o
2 5 9 0.593 0.559 0.090 256.135 o
2 5 10 0.720 0.699 0.100 204.732 o
2 5 11 0.015 0.110 0.160 118.783 o
2 6 2 59.421 53.399 0.659 0.342 o
2 6 3 0.000 0.090 0.150 135.501 o
2 6 4 0.790 0.629 0.100 201.966 o
2 6 5 0.018 0.030 0.130 180.451 o
2 6 6 2.760 3.207 0.270 28.107 o
2 6 7 0.015 0.180 0.150 134.214 o
2 6 8 0.086 0.180 0.150 132.644 o
2 6 9 0.080 0.200 0.140 151.527 o
2 6 10 0.248 0.320 0.130 165.930 o
2 6 11 0.156 0.190 0.170 102.885 o
2 7 2 2.363 1.948 0.190 51.093 o
2 7 3 22.227 22.249 0.779 1.567 o
2 7 4 7.078 7.163 0.150 16.528 o
2 7 5 0.727 0.789 0.200 67.772 o
2 7 6 0.002 0.130 0.190 84.497 o
2 7 7 2.743 2.837 0.200 41.648 o
2 7 8 0.449 0.460 0.110 204.984 o
2 7 9 1.221 1.549 0.160 83.050 o
2 7 10 0.173 0.220 0.140 148.505 o
2 8 2 1.182 1.179 0.230 49.080 o
2 8 3 0.643 0.559 0.110 188.842 o
2 8 4 1.511 1.299 0.120 113.241 o
2 8 5 5.656 6.184 0.310 14.515 o
2 8 6 3.047 2.827 0.120 59.018 o
2 8 7 1.432 1.529 0.110 122.302 o
2 8 8 0.007 0.130 0.190 84.451 o
2 8 9 0.060 0.190 0.180 93.139 o
2 8 10 0.380 0.410 0.130 158.923 o
2 9 2 6.007 5.964 0.140 21.834 o
2 9 3 0.925 1.189 0.120 137.954 o
2 9 4 0.397 0.520 0.120 178.838 o
2 9 5 1.924 2.028 0.110 96.201 o
2 9 6 0.078 0.110 0.160 117.716 o
2 9 7 0.047 0.130 0.180 93.595 o
2 9 8 0.055 0.240 0.160 116.991 o
2 9 9 0.097 0.090 0.190 83.854 o
2 10 2 0.779 0.859 0.120 151.753 o
2 10 3 0.960 1.009 0.130 125.914 o
2 10 4 5.084 4.925 0.130 28.854 o
2 10 5 2.082 1.898 0.120 87.333 o
2 10 6 3.453 3.577 0.130 46.767 o
2 10 7 0.397 0.300 0.130 160.449 o
2 10 8 0.203 0.290 0.140 146.576 o
2 10 9 0.371 0.440 0.130 158.720 o
2 11 2 0.936 0.749 0.100 186.396 o
2 11 3 0.133 0.170 0.130 173.332 o
2 11 4 1.308 1.459 0.160 82.299 o
2 11 5 0.077 0.100 0.170 104.572 o
2 11 6 0.073 0.180 0.180 93.054 o
2 11 7 0.348 0.380 0.130 160.802 o
2 11 8 0.005 0.020 0.110 252.654 o
2 12 2 4.934 5.135 0.130 29.101 o
2 12 3 3.868 3.996 0.130 40.648 o
2 12 4 0.146 0.240 0.120 199.292 o
2 12 5 1.880 2.058 0.200 51.573 o
2 12 6 0.192 0.210 0.180 91.567 o
2 12 7 0.326 0.360 0.130 162.055 o
2 12 8 0.155 0.280 0.170 102.259 o
2 13 2 0.053 0.100 0.160 118.229 o
2 13 3 0.123 0.150 0.160 116.596 o
2 13 4 0.624 0.749 0.120 161.728 o
2 13 5 0.059 0.040 0.160 118.634 o
2 13 6 0.177 0.260 0.130 169.885 o
2 13 7 0.001 0.040 0.140 156.060 o
2 14 2 2.102 2.198 0.130 77.882 o
2 14 3 1.633 1.828 0.130 93.112 o
2 14 4 0.611 0.709 0.130 144.157 o
2 14 5 0.066 0.040 0.150 134.617 o
2 15 2 0.124 0.160 0.150 132.015 o
2 15 3 0.308 0.450 0.110 215.115 o
2 15 4 0.000 0.050 0.170 105.915 o
3 0 3 12.874 13.157 0.370 4.915 o
3 0 5 32.686 32.758 0.869 0.853 o
3 0 7 0.413 0.290 0.200 72.606 o
3 0 9 0.555 0.420 0.180 85.969 o
3 0 11 0.000 0.050 0.200 76.591 o
3 1 3 0.357 0.440 0.090 292.969 o
3 1 4 13.246 13.757 0.649 3.259 o
3 1 5 8.470 9.711 0.290 9.372 o
3 1 6 6.908 7.523 0.150 16.503 o
3 1 7 5.262 5.934 0.160 23.719 o
3 1 8 0.043 0.100 0.190 84.277 o
3 1 9 0.057 0.090 0.160 118.243 o
3 1 10 0.710 0.689 0.120 158.988 o
3 1 11 0.375 0.440 0.230 55.457 o
3 2 3 1.101 1.299 0.260 39.822 o
3 2 4 20.564 20.820 0.559 2.066 o
3 2 5 0.053 0.050 0.170 105.233 o
3 2 6 3.613 3.597 0.190 35.105 o
3 2 7 2.441 2.897 0.140 61.476 o
3 2 8 0.762 0.839 0.110 172.827 o
3 2 9 1.421 1.608 0.140 93.464 o
3 2 10 0.182 0.300 0.230 56.672 o
3 2 11 0.022 0.010 0.050 1183.930 o
3 3 3 26.203 28.403 1.509 0.725 o
3 3 4 0.997 0.809 0.170 85.371 o
3 3 5 5.814 6.334 0.260 16.295 o
3 3 6 8.602 10.000 0.639 4.636 o
3 3 7 0.026 0.080 0.140 154.807 o
3 3 8 1.716 1.758 0.210 50.652 o
3 3 9 0.295 0.310 0.120 189.606 o
3 3 10 0.060 0.040 0.160 118.605 o
3 3 11 0.191 0.190 0.150 130.175 o
3 4 3 0.050 0.160 0.140 152.971 o
3 4 4 0.199 0.170 0.120 198.374 o
3 4 5 0.227 0.260 0.110 227.678 o
3 4 6 1.146 1.499 0.180 71.417 o
3 4 7 1.263 1.429 0.120 119.777 o
3 4 8 4.844 5.275 0.170 26.223 o
3 4 9 0.892 0.929 0.120 145.030 o
3 4 10 0.661 0.659 0.130 143.199 o
3 4 11 0.033 0.020 0.090 372.121 o
3 5 3 12.259 11.859 0.310 5.830 o
3 5 4 8.613 8.212 0.729 4.057 o
3 5 5 0.928 1.199 0.120 137.608 o
3 5 6 0.117 0.150 0.180 92.735 o
3 5 7 4.176 4.326 0.200 28.779 o
3 5 8 0.252 0.200 0.170 101.456 o
3 5 9 0.271 0.330 0.130 164.827 o
3 5 10 0.002 0.050 0.170 105.900 o
3 6 3 0.106 0.180 0.120 202.977 o
3 6 4 3.851 4.216 0.300 20.444 o
3 6 5 0.497 0.719 0.130 148.340 o
3 6 6 4.668 4.945 0.260 20.596 o
3 6 7 2.071 2.118 0.140 74.195 o
3 6 8 1.624 1.738 0.240 41.953 o
3 6 9 1.610 1.818 0.130 93.821 o
3 6 10 0.202 0.210 0.150 129.693 o
3 7 3 6.863 6.414 0.300 12.921 o
3 7 4 0.144 0.140 0.190 83.216 o
3 7 5 0.084 0.390 0.120 198.611 o
3 7 6 1.512 1.698 0.110 115.788 o
3 7 7 1.004 0.959 0.150 101.965 o
3 7 8 0.622 0.709 0.210 63.224 o
3 7 9 0.063 0.130 0.200 75.878 o
3 7 10 0.067 0.210 0.170 103.969 o
3 8 3 2.251 2.528 0.130 71.638 o
3 8 4 2.009 2.108 0.130 80.829 o
3 8 5 9.367 9.611 0.230 9.441 o
3 8 6 0.142 0.220 0.110 235.324 o
3 8 7 2.370 2.637 0.230 37.974 o
3 8 8 0.470 0.539 0.180 86.276 o
3 8 9 0.163 0.470 0.160 113.047 o
3 9 3 1.525 1.738 0.140 89.505 o
3 9 4 0.013 0.190 0.160 118.141 o
3 9 5 0.706 0.799 0.110 177.377 o
3 9 6 1.354 1.479 0.120 115.593 o
3 9 7 0.132 0.160 0.150 131.839 o
3 9 8 0.014 0.050 0.160 119.292 o
3 9 9 0.032 0.230 0.130 176.106 o
3 10 3 0.828 0.769 0.110 170.984 o
3 10 4 4.458 4.975 0.130 32.441 o
3 10 5 1.244 1.279 0.120 123.313 o
3 10 6 2.395 2.727 0.230 37.591 o
3 10 7 0.075 0.200 0.150 132.665 o
3 10 8 0.021 0.080 0.220 63.157 o
3 11 3 0.019 0.040 0.130 180.207 o
3 11 4 3.054 3.107 0.250 30.065 o
3 11 5 0.355 0.350 0.120 185.434 o
3 11 6 0.028 0.120 0.200 76.160 o
3 11 7 0.161 0.190 0.140 149.301 o
3 12 3 0.058 0.210 0.130 175.461 o
3 12 4 0.355 0.320 0.120 186.233 o
3 12 5 0.938 1.039 0.120 140.616 o
3 12 6 0.159 0.230 0.160 115.257 o
3 12 7 0.000 0.020 0.080 477.018 o
3 13 3 5.092 5.265 0.150 26.552 o
3 13 4 0.005 0.050 0.170 105.850 o
3 13 5 0.324 0.210 0.150 126.880 o
3 13 6 0.044 0.120 0.180 93.684 o
3 14 3 0.056 0.070 0.210 69.111 o
3 14 4 0.027 0.150 0.140 153.777 o
3 15 3 0.002 0.060 0.190 84.789 o
4 0 4 4.278 4.326 0.180 30.431 o
4 0 6 0.400 0.639 0.190 78.359 o
4 0 8 0.073 0.160 0.190 83.753 o
4 0 10 0.688 0.809 0.180 81.807 o
4 1 4 0.004 0.050 0.170 105.866 o
4 1 5 3.028 3.127 0.310 22.660 o
4 1 6 0.923 0.999 0.130 127.369 o
4 1 7 0.121 0.140 0.180 92.745 o
4 1 8 0.342 0.470 0.110 212.080 o
4 1 9 0.313 0.430 0.120 185.532 o
4 1 10 0.408 0.549 0.130 155.108 o
4 2 4 0.983 0.949 0.110 157.131 o
4 2 5 1.248 1.469 0.120 119.611 o
4 2 6 1.220 1.189 0.240 45.432 o
4 2 7 0.003 0.120 0.180 94.111 o
4 2 8 1.429 1.529 0.120 112.141 o
4 2 9 0.192 0.270 0.140 147.192 o
4 2 10 0.102 0.440 0.320 29.627 o
4 3 4 1.513 1.568 0.310 27.922 o
4 3 5 0.045 0.040 0.170 105.404 o
4 3 6 0.080 0.070 0.190 84.088 o
4 3 7 0.161 0.160 0.160 115.852 o
4 3 8 0.027 0.110 0.180 93.918 o
4 3 9 0.743 0.939 0.120 151.587 o
4 3 10 0.060 0.060 0.200 76.143 o
4 4 4 0.044 0.120 0.190 84.179 o
4 4 5 0.013 0.110 0.170 105.358 o
4 4 6 0.099 0.220 0.150 131.905 o
4 4 7 3.745 3.966 0.130 41.895 o
4 4 8 0.049 0.030 0.110 249.065 o
4 4 9 0.900 0.869 0.120 146.024 o
4 4 10 0.042 0.080 0.230 57.722 o
4 5 4 7.431 8.941 0.749 4.034 o
4 5 5 0.748 1.229 0.370 21.365 o
4 5 6 0.550 0.679 0.120 167.033 o
4 5 7 0.293 0.420 0.110 217.237 o
4 5 8 0.710 0.709 0.120 158.532 o
4 5 9 0.005 0.110 0.190 84.556 o
4 6 4 1.897 1.848 0.130 86.334 o
4 6 5 0.849 0.719 0.130 135.062 o
4 6 6 1.098 1.269 0.110 143.038 o
4 6 7 0.290 0.320 0.120 189.616 o
4 6 8 1.394 1.788 0.130 100.071 o
4 6 9 0.047 0.120 0.200 76.028 o
4 7 4 2.025 2.248 0.110 90.105 o
4 7 5 2.302 2.478 0.230 38.789 o
4 7 6 2.725 3.007 0.340 20.445 o
4 7 7 0.665 0.739 0.120 159.952 o
4 7 8 0.016 0.080 0.230 57.824 o
4 7 9 0.144 0.110 0.220 62.483 o
4 8 4 2.568 2.607 0.120 68.940 o
4 8 5 0.061 0.130 0.140 153.077 o
4 8 6 0.460 0.360 0.130 156.774 o
4 8 7 0.305 0.380 0.130 162.477 o
4 8 8 0.030 0.030 0.130 179.973 o
4 9 4 1.341 1.549 0.180 68.627 o
4 9 5 3.958 4.396 0.140 36.945 o
4 9 6 0.664 0.799 0.190 74.773 o
4 9 7 0.567 0.679 0.130 146.393 o
4 9 8 0.097 0.100 0.210 68.787 o
4 10 4 0.039 0.080 0.210 69.180 o
4 10 5 0.793 0.779 0.250 45.039 o
4 10 6 0.019 0.070 0.210 69.320 o
4 10 7 0.010 0.050 0.180 94.405 o
4 11 4 1.095 1.199 0.150 97.198 o
4 11 5 0.226 0.380 0.250 47.868 o
4 11 6 0.729 1.039 0.250 44.770 o
4 12 4 0.771 0.779 0.120 153.986 o
4 12 5 0.002 0.130 0.180 94.072 o
4 13 4 0.023 0.110 0.200 76.229 o
5 0 5 0.159 0.190 0.170 102.841 o
5 0 7 0.004 0.110 0.220 63.166 o
5 0 9 0.387 0.400 0.190 79.690 o
5 1 5 4.761 3.726 0.210 26.495 o
5 1 6 2.999 2.647 0.240 32.870 o
5 1 7 0.209 0.210 0.130 169.594 o
5 1 8 0.242 0.350 0.130 165.573 o
5 1 9 0.003 0.110 0.180 94.168 o
5 2 5 0.030 0.090 0.210 69.206 o
5 2 6 0.005 0.170 0.160 118.449 o
5 2 7 0.327 0.250 0.130 164.173 o
5 2 8 0.065 0.120 0.200 75.899 o
5 2 9 0.048 0.220 0.160 117.284 o
5 3 5 2.261 2.258 0.190 50.607 o
5 3 6 0.189 0.280 0.140 147.159 o
5 3 7 0.904 0.969 0.170 85.578 o
5 3 8 0.188 0.200 0.150 130.121 o
5 3 9 0.161 0.320 0.140 147.388 o
5 4 5 0.467 0.559 0.110 200.377 o
5 4 6 0.471 0.440 0.120 177.073 o
5 4 7 0.000 0.200 0.140 153.823 o
5 4 8 0.307 0.180 0.200 73.881 o
5 4 9 0.017 0.080 0.220 63.172 o
5 5 5 0.028 0.050 0.150 135.329 o
5 5 6 0.079 0.070 0.200 75.981 o
5 5 7 0.258 0.390 0.130 164.140 o
5 5 8 0.249 0.360 0.130 165.069 o
5 6 5 0.010 0.150 0.150 134.633 o
5 6 6 0.157 0.290 0.130 170.089 o
5 6 7 0.425 0.470 0.170 96.912 o
5 6 8 0.003 0.180 0.200 76.124 o
5 7 5 1.104 0.909 0.190 69.424 o
5 7 6 0.097 0.070 0.200 75.851 o
5 7 7 0.000 0.090 0.190 84.676 o
5 7 8 0.074 0.280 0.140 150.534 o
5 8 5 0.464 0.559 0.120 174.415 o
5 8 6 0.094 0.190 0.190 83.438 o
5 8 7 0.054 0.160 0.200 75.837 o
5 9 5 0.020 0.040 0.150 135.605 o
5 9 6 0.552 0.669 0.130 147.155 o
5 9 7 0.001 0.060 0.150 135.798 o
5 10 5 0.001 0.170 0.200 76.175 o
5 10 6 0.222 0.380 0.160 112.782 o
5 11 5 0.593 0.689 0.160 102.874 o
6 0 6 2.350 2.288 0.180 52.828 o
6 0 8 0.009 0.050 0.210 69.434 o
6 1 6 0.005 0.220 0.130 177.316 o
6 1 7 0.063 0.170 0.150 133.267 o
6 1 8 0.037 0.050 0.170 105.437 o
6 2 6 0.016 0.010 0.050 1193.290 o
6 2 7 0.358 0.490 0.130 158.216 o
6 2 8 0.000 0.220 0.150 134.094 o
6 3 6 0.267 0.410 0.130 163.393 o
6 3 7 0.428 0.360 0.130 158.054 o
6 4 6 0.399 0.510 0.130 156.230 o
6 4 7 0.020 0.040 0.130 180.175 o
6 5 6 0.360 0.280 0.140 142.034 o
6 5 7 0.097 0.090 0.240 52.831 o
6 6 6 0.179 0.170 0.200 74.889 o
6 6 7 0.010 0.260 0.170 104.400 o
6 7 6 0.006 0.030 0.130 180.880 o
6 8 6 0.049 0.170 0.170 104.488 o
;
_iucr_refine_instructions_details
;
TITL ethox
CELL 0.71068 4.633 8.4 6.577 90 100.37 90
ZERR 4 0.005 0.001 0.003 0 0.06 0
LATT 1
SYMM 0.5+X,0.5-Y,0.5+Z
SFAC C H O
UNIT 8 16 4

L.S. 10
PLAN  10
CONF
BOND $H
LIST 6
fmap 2
acta
MORE -1
WGHT 0.049925 0.005218
FVAR 1.000479
REM <olex2.extras>
REM <HklSrc "%.\\epoxide.hkl">
REM </olex2.extras>

O1    3     0.11712  0.83086  0.12414  11.00000  0.03459  0.02642  0.03014 =
 -0.00488  0.01035  0.00246
C2    1     0.14828  0.93859  0.29590  11.00000  0.03391  0.02521  0.02718 =
 -0.00245  0.00589  0.00068
AFIX 23
H2a   2     0.25673  0.90200  0.42764  11.00000 -1.20000
H2b   2     0.16973  1.05100  0.26834  11.00000 -1.20000
AFIX 0
C3    1    -0.13413  0.86458  0.21835  11.00000  0.03149  0.03422  0.03444 =
 -0.00001  0.01248 -0.00304
AFIX 23
H3a   2    -0.28814  0.93087  0.14229  11.00000 -1.20000
H3b   2    -0.20111  0.78182  0.30164  11.00000 -1.20000
AFIX 0
HKLF 4

END
Q1 1 -0.033333 0.933333 0.291667 11 0.05 0.23

  REM The information below was added by Olex2.
  REM
  REM R1 = 0.0379 for 1306 Fo > 4sig(Fo) and 0.0676 for all 2081 data
  REM 28 parameters refined using 0 restraints
  REM Highest difference peak 0.2338, deepest hole -0.2616
  REM Mean Shift 0.0000, Max Shift -0.0001.

  REM +++ Tabular Listing of Refinement Information +++
  REM R1_all = 0.0676
  REM R1_gt = 0.0379
  REM wR_ref = 0.1157
  REM GOOF = 1.0150
  REM Shift_max = -0.0001
  REM Shift_mean = 0.0000
  REM Reflections_all = 2081
  REM Reflections_gt = 1306
  REM Parameters = 28
  REM Hole = -0.2616
  REM Peak = 0.2338
  REM Flack = n/a

  
;
_olex2_submission_special_instructions  'No special instructions were received'
